38
Coordinates from ORCA-job get_bvl_bvl_rxn1_TS_MEP E -771.304707949426
  C       1.571349      0.636550     -0.748728
  C       2.391226      1.726795     -0.083227
  C       3.345734      1.493191      0.833207
  C       3.741508      0.171772      1.353674
  C       2.719964     -0.947360      1.584396
  C       3.771173     -1.087507      0.478253
  C       3.419256     -1.069667     -0.954024
  C       2.456184     -0.322821     -1.519817
  C       1.281380     -0.789729      1.305727
  C       0.719584     -0.095307      0.291891
  C      -0.754809     -0.005580      0.152364
  C      -1.297022     -0.378861     -1.180975
  C      -2.490305      0.320299     -1.835798
  C      -3.217266      1.427017     -1.185737
  C      -3.469501      1.539593      0.129372
  C      -3.028658      0.514852      1.160099
  C      -1.516155      0.399913      1.192629
  C      -3.676907     -0.830611      0.891179
  C      -3.473913     -1.536855     -0.233246
  C      -2.613450     -1.135693     -1.362421
  H       0.890137      1.121418     -1.459374
  H       2.185109      2.760640     -0.376399
  H       3.885284      2.347763      1.253457
  H       4.538368      0.205742      2.100941
  H       2.929470     -1.560125      2.464897
  H       4.583171     -1.775102      0.728092
  H       4.009785     -1.732819     -1.594049
  H       2.296911     -0.399225     -2.600262
  H       0.608111     -1.309446      1.993615
  H      -0.526608     -0.692374     -1.889087
  H      -2.400335      0.423522     -2.920311
  H      -3.576141      2.214440     -1.856071
  H      -4.022453      2.413533      0.487596
  H      -3.359705      0.862674      2.148002
  H      -1.006684      0.688547      2.116142
  H      -4.343477     -1.236746      1.658300
  H      -3.983260     -2.498941     -0.346976
  H      -2.587056     -1.863493     -2.177331
