60
Coordinates from ORCA-job get_bvl_bvl_rxn1_TS_MEP E -1206.035608350925
  C       0.242749     -2.196731     -5.544324
  C       0.666133     -2.247112     -4.079417
  O       0.324114     -0.983799     -3.446654
  C      -0.109723     -3.341008     -3.335335
  C       2.228818     -2.328959     -3.841113
  C       2.770366     -3.738980     -3.625305
  C       3.036356     -1.606858     -4.927117
  O       2.393973     -1.568424     -2.614523
  B       1.313410     -0.709066     -2.518948
  C       1.203368      0.443351     -1.487762
  C       2.252008      0.681595     -0.644561
  C       2.340947      1.699255      0.408399
  H       3.293019      1.699813      0.960676
  C       1.126028      2.111617      1.264958
  H       1.390795      2.331862      2.310445
  C      -0.209492      1.485791      1.114239
  B      -1.027998      1.223901      2.409680
  O      -0.591428      1.608865      3.664616
  C      -1.483812      0.997152      4.636743
  C      -1.663254      1.952637      5.812351
  C      -0.810502     -0.300579      5.100458
  C      -2.789278      0.742156      3.779184
  C      -3.726311      1.955533      3.744012
  C      -3.564840     -0.517989      4.151246
  O      -2.251833      0.582563      2.438192
  C      -0.750679      1.117277     -0.083459
  C      -0.078470      1.275584     -1.430625
  H      -0.763330      0.890512     -2.208002
  C       0.205786      2.736841     -1.727868
  C       1.002284      3.520670     -0.964328
  C       1.711682      3.103893      0.259520
  H       2.318128      3.897175      0.722857
  H      -0.861132     -2.135506     -5.613369
  H       0.570246     -3.110680     -6.079478
  H       0.665150     -1.314305     -6.058662
  H      -1.188035     -3.089645     -3.354968
  H       0.206390     -3.403769     -2.275621
  H       0.026391     -4.335075     -3.804380
  H       2.574431     -4.375289     -4.511653
  H       2.316871     -4.217242     -2.737923
  H       3.865949     -3.698240     -3.466967
  H       3.036962     -2.166073     -5.883221
  H       4.083502     -1.502919     -4.582146
  H       2.636200     -0.590709     -5.111747
  H       3.140786      0.036854     -0.755965
  H      -0.699721      2.075353      6.345034
  H      -2.404918      1.554418      6.533741
  H      -1.995721      2.952776      5.479202
  H       0.198962     -0.060346      5.487164
  H      -0.693927     -1.011008      4.258823
  H      -1.384580     -0.798330      5.906315
  H      -4.247295      2.102957      4.710278
  H      -4.488969      1.795056      2.957262
  H      -3.171964      2.881941      3.496185
  H      -3.915875     -0.469418      5.201693
  H      -2.948462     -1.426638      4.024680
  H      -4.452890     -0.615512      3.496479
  H      -1.754041      0.658118     -0.068190
  H      -0.265365      3.174546     -2.623216
  H       1.152042      4.570148     -1.267588
