38
Coordinates from ORCA-job get_bvl_bvl_rxn1_TS_MEP E -771.281716484661
  C       1.627960      0.648207     -0.756640
  C       2.419761      1.725058     -0.036307
  C       3.341323      1.476183      0.922042
  C       3.705471      0.144388      1.434197
  C       2.665810     -0.981438      1.591252
  C       3.778472     -1.101350      0.531553
  C       3.492258     -1.056128     -0.913105
  C       2.545373     -0.294997     -1.509024
  C       1.239844     -0.828530      1.246705
  C       0.712156     -0.112564      0.213263
  C      -0.762380      0.043344     -0.011063
  C      -1.224088     -0.049798     -1.337954
  C      -2.615670      0.235060     -1.844889
  C      -3.330707      1.426225     -1.273816
  C      -3.522541      1.622153      0.041659
  C      -3.044732      0.679032      1.104911
  C      -1.589275      0.280100      1.110814
  C      -3.381825     -0.782623      1.012866
  C      -3.435179     -1.549905     -0.162484
  C      -3.069980     -1.145067     -1.445506
  H       0.975957      1.153511     -1.491007
  H       2.230319      2.772058     -0.327047
  H       3.873719      2.329985      1.374514
  H       4.472674      0.157004      2.224141
  H       2.842111     -1.610240      2.478310
  H       4.583069     -1.798483      0.811880
  H       4.110739     -1.714607     -1.545232
  H       2.425738     -0.358141     -2.604406
  H       0.542203     -1.369526      1.906859
  H      -0.512036     -0.428726     -2.087252
  H      -2.588740      0.308960     -2.947477
  H      -3.697860      2.179583     -1.988286
  H      -4.043327      2.531596      0.381482
  H      -3.318019      1.061931      2.104239
  H      -1.112261      0.222030      2.100553
  H      -3.604194     -1.288660      1.963922
  H      -3.692861     -2.615011     -0.038969
  H      -3.039282     -1.910612     -2.234695
