38
Coordinates from ORCA-job get_bvl_bvl_rxn1_TS_MEP E -771.301192385822
  C       1.627474      0.656915     -0.742459
  C       2.427034      1.731101     -0.029937
  C       3.350593      1.481235      0.924708
  C       3.709098      0.147816      1.436705
  C       2.658983     -0.967072      1.601588
  C       3.767478     -1.100048      0.537284
  C       3.481713     -1.056501     -0.907409
  C       2.534698     -0.292996     -1.498120
  C       1.230954     -0.794571      1.273728
  C       0.701589     -0.081526      0.234626
  C      -0.760664      0.013753     -0.034419
  C      -1.160298      0.050261     -1.344987
  C      -2.585119      0.158370     -1.836235
  C      -3.307747      1.380715     -1.300860
  C      -3.506105      1.624647      0.009767
  C      -3.056957      0.751806      1.110697
  C      -1.712601      0.013962      1.103539
  C      -3.072795     -0.771358      1.033162
  C      -3.413516     -1.549574     -0.170371
  C      -3.207371     -1.169325     -1.453057
  H       0.980578      1.166827     -1.475278
  H       2.237537      2.776803     -0.325539
  H       3.885724      2.333215      1.375929
  H       4.477446      0.155862      2.225109
  H       2.835623     -1.600691      2.484613
  H       4.567677     -1.802541      0.817397
  H       4.101005     -1.713088     -1.541019
  H       2.410312     -0.354191     -2.593152
  H       0.538986     -1.341741      1.935446
  H      -0.402581     -0.155138     -2.116853
  H      -2.562300      0.240190     -2.939508
  H      -3.673710      2.118173     -2.035290
  H      -4.035148      2.545284      0.312682
  H      -3.323396      1.126504      2.111466
  H      -1.224549      0.005748      2.090697
  H      -3.376667     -1.254985      1.975160
  H      -3.783513     -2.571504      0.012133
  H      -3.359462     -1.902338     -2.261940
