38
Coordinates from ORCA-job get_bvl_bvl_rxn1_TS_MEP E -771.294049612269
  C       1.614679      0.644341     -0.764395
  C       2.408154      1.721892     -0.041122
  C       3.334497      1.474787      0.914492
  C       3.702863      0.145481      1.429280
  C       2.665540     -0.981205      1.586373
  C       3.777790     -1.100827      0.527187
  C       3.488021     -1.055599     -0.916459
  C       2.538577     -0.297023     -1.512938
  C       1.239231     -0.835770      1.237374
  C       0.702106     -0.124286      0.203977
  C      -0.777384      0.024291      0.022770
  C      -1.351850     -0.264215     -1.309645
  C      -2.633435      0.307977     -1.882433
  C      -3.333716      1.450337     -1.263831
  C      -3.514637      1.603554      0.062481
  C      -3.021899      0.627533      1.113798
  C      -1.527672      0.378509      1.114779
  C      -3.502167     -0.799925      0.995955
  C      -3.412410     -1.538509     -0.145475
  C      -2.793357     -1.111364     -1.400975
  H       0.966338      1.152131     -1.501233
  H       2.222623      2.769666     -0.331009
  H       3.867933      2.329082      1.365627
  H       4.471346      0.159815      2.218345
  H       2.842672     -1.609915      2.473440
  H       4.583886     -1.796578      0.807361
  H       4.108364     -1.712174     -1.548885
  H       2.423734     -0.360017     -2.608380
  H       0.542565     -1.373321      1.901929
  H      -0.594915     -0.529431     -2.067449
  H      -2.592612      0.353335     -2.981426
  H      -3.708837      2.214722     -1.964632
  H      -4.039153      2.508015      0.411888
  H      -3.312233      1.028118      2.104779
  H      -1.040396      0.361115      2.101714
  H      -3.759486     -1.305547      1.939551
  H      -3.701749     -2.600679     -0.082776
  H      -2.883012     -1.858314     -2.210035
