60
Coordinates from ORCA-job get_bvl_bvl_rxn1_TS_MEP E -1206.020844901973
  C       0.564365     -1.659687     -5.935597
  C       0.832399     -2.083120     -4.492064
  O       0.381149     -1.023503     -3.606055
  C       0.007124     -3.328038     -4.145686
  C       2.370911     -2.224498     -4.112486
  C       2.888648     -3.659777     -4.057030
  C       3.288266     -1.362925     -4.987949
  O       2.423639     -1.686891     -2.765702
  B       1.279783     -0.945451     -2.554836
  C       1.013933     -0.111735     -1.277341
  C       2.059926      0.138443     -0.395944
  C       2.112423      1.100192      0.656695
  H       3.062843      1.156856      1.212870
  C       0.950916      1.833805      1.270814
  H       1.224659      2.238034      2.256897
  C      -0.412494      1.224215      1.286435
  B      -1.170659      1.186926      2.638842
  O      -0.667873      1.756915      3.792633
  C      -1.528417      1.359880      4.894571
  C      -1.684157      2.552596      5.835187
  C      -0.829294      0.203285      5.618858
  C      -2.862977      0.916641      4.152341
  C      -3.878111      2.055366      4.001978
  C      -3.542108     -0.316261      4.743031
  O      -2.395133      0.580280      2.820250
  C      -0.971887      0.671986      0.181368
  C      -0.339413      0.584470     -1.179970
  H      -1.043189      0.091976     -1.875083
  C       0.178233      1.852592     -1.810875
  C       0.936061      2.805800     -1.171101
  C       1.417989      2.741775      0.175950
  H       2.055767      3.581290      0.493912
  H      -0.527734     -1.580386     -6.104953
  H       0.969841     -2.400999     -6.653597
  H       1.012794     -0.673989     -6.155976
  H      -1.068499     -3.091260     -4.262105
  H       0.171137     -3.641270     -3.096557
  H       0.248899     -4.180966     -4.808961
  H       2.792435     -4.161912     -5.039820
  H       2.345361     -4.252900     -3.298782
  H       3.959451     -3.654366     -3.773355
  H       3.358413     -1.759338     -6.020350
  H       4.304138     -1.357187     -4.547124
  H       2.932902     -0.315514     -5.036097
  H       3.014664     -0.359444     -0.634557
  H      -0.706728      2.793691      6.297953
  H      -2.403050      2.328324      6.648302
  H      -2.032428      3.451407      5.294323
  H       0.176069      0.534150      5.945104
  H      -0.699615     -0.670791      4.951855
  H      -1.397722     -0.118134      6.513272
  H      -4.335217      2.324401      4.974244
  H      -4.684038      1.727923      3.316778
  H      -3.412006      2.961460      3.568572
  H      -3.839086     -0.141162      5.796240
  H      -2.879680     -1.199973      4.700856
  H      -4.454905     -0.550962      4.160865
  H      -1.972553      0.221485      0.294354
  H       0.057256      1.918040     -2.902055
  H       1.346580      3.618235     -1.793342
