60
Coordinates from ORCA-job get_bvl_bvl_rxn1_TS E -1206.018988380252
  C       0.561708     -1.664797     -5.936736
  C       0.828062     -2.081371     -4.491156
  O       0.373886     -1.012764     -3.617219
  C       0.004573     -3.325630     -4.138846
  C       2.366197     -2.218949     -4.108892
  C       2.885868     -3.654219     -4.047770
  C       3.284790     -1.362507     -4.988755
  O       2.415687     -1.666049     -2.766727
  B       1.280565     -0.901893     -2.578255
  C       1.023107     -0.039354     -1.316386
  C       2.075209      0.130173     -0.378035
  C       2.114659      0.955138      0.736812
  H       3.079077      1.058946      1.260966
  C       0.990048      1.838320      1.226109
  H       1.245074      2.241584      2.220931
  C      -0.395436      1.231868      1.282695
  B      -1.157243      1.193525      2.638489
  O      -0.661391      1.759420      3.796588
  C      -1.526480      1.358641      4.894407
  C      -1.684508      2.548812      5.837779
  C      -0.829430      0.200105      5.617475
  C      -2.859018      0.916499      4.148174
  C      -3.876008      2.054684      3.999975
  C      -3.540474     -0.317757      4.736905
  O      -2.384845      0.585203      2.816248
  C      -0.974361      0.672689      0.191195
  C      -0.363263      0.579031     -1.169723
  H      -1.055046      0.088437     -1.874965
  C       0.235028      1.795441     -1.813569
  C       0.936406      2.827152     -1.167886
  C       1.307234      2.869880      0.174398
  H       1.990430      3.677082      0.481725
  H      -0.530290     -1.586871     -6.107374
  H       0.967996     -2.409279     -6.650235
  H       1.009955     -0.679847     -6.161927
  H      -1.071302     -3.090081     -4.256070
  H       0.170494     -3.635502     -3.088875
  H       0.247692     -4.179816     -4.800530
  H       2.789353     -4.159037     -5.029717
  H       2.343418     -4.246830     -3.288531
  H       3.957620     -3.648437     -3.767021
  H       3.354112     -1.763362     -6.019114
  H       4.301859     -1.356202     -4.550406
  H       2.931462     -0.314648     -5.043360
  H       3.017664     -0.377090     -0.644268
  H      -0.707289      2.788769      6.301572
  H      -2.404379      2.322597      6.649707
  H      -2.032002      3.448862      5.298380
  H       0.175674      0.529980      5.945375
  H      -0.699037     -0.673054      4.949397
  H      -1.399540     -0.122461      6.510480
  H      -4.334039      2.322307      4.972491
  H      -4.682635      1.729306      3.314363
  H      -3.410265      2.961952      3.568988
  H      -3.838432     -0.144139      5.790402
  H      -2.879948     -1.202952      4.696093
  H      -4.454581     -0.552486      4.156324
  H      -1.976510      0.226514      0.310640
  H       0.116818      1.856594     -2.905603
  H       1.346023      3.617871     -1.817138
60
Coordinates from ORCA-job get_bvl_bvl_rxn1_TS E -1206.019241826692
  C       0.545620     -1.661027     -5.937193
  C       0.833516     -2.089650     -4.499577
  O       0.366188     -1.042503     -3.607262
  C       0.039577     -3.355129     -4.155315
  C       2.377281     -2.198695     -4.132236
  C       2.932187     -3.621707     -4.111539
  C       3.267975     -1.297066     -4.995100
  O       2.422650     -1.676505     -2.778009
  B       1.275876     -0.935293     -2.570347
  C       1.015313     -0.089302     -1.298383
  C       2.068760      0.085037     -0.363905
  C       2.110232      0.916546      0.747596
  H       3.074046      1.018381      1.272692
  C       0.987045      1.801117      1.236502
  H       1.244298      2.209352      2.229217
  C      -0.398375      1.197523      1.296656
  B      -1.159800      1.176834      2.652135
  O      -0.660409      1.752955      3.803694
  C      -1.530305      1.372169      4.904332
  C      -1.673524      2.570620      5.839511
  C      -0.847451      0.209824      5.634627
  C      -2.867649      0.942727      4.159430
  C      -3.861952      2.097151      3.986560
  C      -3.574115     -0.269198      4.764249
  O      -2.393551      0.583307      2.835159
  C      -0.979016      0.632442      0.209220
  C      -0.369630      0.531081     -1.152459
  H      -1.063522      0.037573     -1.854073
  C       0.227756      1.744079     -1.803655
  C       0.932825      2.776319     -1.164094
  C       1.306423      2.824253      0.177929
  H       1.985011      3.636744      0.482539
  H      -0.549148     -1.602645     -6.096640
  H       0.959522     -2.389392     -6.662901
  H       0.972613     -0.665049     -6.154707
  H      -1.042002     -3.139809     -4.257556
  H       0.223759     -3.675012     -3.111326
  H       0.292401     -4.195561     -4.830847
  H       2.842025     -4.102370     -5.106150
  H       2.409112     -4.247468     -3.365513
  H       4.005130     -3.596606     -3.837016
  H       3.340849     -1.669176     -6.035844
  H       4.287051     -1.276242     -4.562034
  H       2.887848     -0.257361     -5.019834
  H       3.011283     -0.422226     -0.629975
  H      -0.693263      2.801898      6.300968
  H      -2.395099      2.358109      6.653639
  H      -2.011043      3.471058      5.294511
  H       0.161984      0.529578      5.959121
  H      -0.728659     -0.669117      4.971817
  H      -1.420339     -0.099816      6.530359
  H      -4.321445      2.389017      4.951268
  H      -4.669509      1.775788      3.300234
  H      -3.375833      2.988340      3.544306
  H      -3.875571     -0.072225      5.812597
  H      -2.929030     -1.166322      4.742838
  H      -4.488485     -0.497284      4.181708
  H      -1.982303      0.189618      0.332208
  H       0.113016      1.796025     -2.896842
  H       1.341850      3.564289     -1.817290
60
Coordinates from ORCA-job get_bvl_bvl_rxn1_TS E -1206.019270625255
  C       0.539473     -1.662568     -5.936131
  C       0.833988     -2.093282     -4.500664
  O       0.364229     -1.051894     -3.602951
  C       0.049172     -3.364628     -4.157175
  C       2.378847     -2.194555     -4.138646
  C       2.943726     -3.613596     -4.133921
  C       3.260066     -1.276825     -4.994071
  O       2.423375     -1.684989     -2.779732
  B       1.275091     -0.947961     -2.566343
  C       1.014305     -0.107742     -1.290864
  C       2.066930      0.071110     -0.360070
  C       2.109723      0.911836      0.747475
  H       3.072659      1.010387      1.274485
  C       0.985158      1.789042      1.243522
  H       1.243799      2.196782      2.235999
  C      -0.400047      1.188220      1.299916
  B      -1.162527      1.173756      2.654219
  O      -0.662927      1.754976      3.803247
  C      -1.532466      1.377549      4.905257
  C      -1.674648      2.577325      5.838739
  C      -0.850413      0.215347      5.636444
  C      -2.869963      0.948423      4.161517
  C      -3.859265      2.105748      3.979642
  C      -3.580868     -0.256992      4.773234
  O      -2.395303      0.579737      2.840024
  C      -0.979305      0.623812      0.211522
  C      -0.367087      0.521699     -1.149763
  H      -1.062560      0.029189     -1.850855
  C       0.224665      1.739221     -1.799770
  C       0.935458      2.764312     -1.159910
  C       1.315867      2.804355      0.182663
  H       1.993336      3.617238      0.488689
  H      -0.556037     -1.609263     -6.092005
  H       0.954670     -2.387697     -6.664402
  H       0.961140     -0.664157     -6.152812
  H      -1.034087     -3.155080     -4.253291
  H       0.240718     -3.686584     -3.115098
  H       0.303512     -4.201444     -4.836614
  H       2.855371     -4.084063     -5.133595
  H       2.426102     -4.251022     -3.394037
  H       4.016867     -3.583628     -3.860839
  H       3.334618     -1.637531     -6.038726
  H       4.279319     -1.251525     -4.561762
  H       2.870565     -0.240296     -5.007010
  H       3.010106     -0.436041     -0.624024
  H      -0.694080      2.808804      6.299372
  H      -2.395602      2.365705      6.653685
  H      -2.012533      3.477159      5.292983
  H       0.159825      0.534567      5.958903
  H      -0.733600     -0.664434      4.974258
  H      -1.422155     -0.092692      6.533487
  H      -4.320645      2.404917      4.941186
  H      -4.665598      1.783422      3.292380
  H      -3.368115      2.992500      3.533793
  H      -3.884126     -0.051241      5.819373
  H      -2.937974     -1.155855      4.759869
  H      -4.494457     -0.486522      4.190124
  H      -1.983722      0.183171      0.333117
  H       0.111038      1.790578     -2.893216
  H       1.346392      3.553217     -1.810825
60
Coordinates from ORCA-job get_bvl_bvl_rxn1_TS E -1206.019405588187
  C       0.504634     -1.693748     -5.923199
  C       0.831672     -2.112339     -4.491492
  O       0.355715     -1.078899     -3.587910
  C       0.081617     -3.399645     -4.130012
  C       2.382805     -2.177890     -4.154057
  C       2.986129     -3.580528     -4.182639
  C       3.225171     -1.219922     -5.004503
  O       2.430908     -1.688600     -2.787802
  B       1.275372     -0.967230     -2.559320
  C       1.015809     -0.134053     -1.279209
  C       2.068952      0.048248     -0.353076
  C       2.114538      0.896007      0.751729
  H       3.078454      0.994699      1.276674
  C       0.989674      1.767859      1.255459
  H       1.250093      2.172665      2.248659
  C      -0.398103      1.173832      1.305861
  B      -1.164903      1.168053      2.657404
  O      -0.664882      1.750451      3.805982
  C      -1.538499      1.376531      4.906094
  C      -1.668632      2.570699      5.848162
  C      -0.869280      0.201259      5.628234
  C      -2.879016      0.967681      4.158117
  C      -3.844284      2.142904      3.961579
  C      -3.615779     -0.219775      4.773488
  O      -2.402026      0.582865      2.841945
  C      -0.976535      0.613657      0.215053
  C      -0.359925      0.510209     -1.144613
  H      -1.057869      0.021784     -1.846232
  C       0.228748      1.732772     -1.791109
  C       0.949907      2.746831     -1.149335
  C       1.335793      2.776667      0.193993
  H       2.019200      3.583766      0.502296
  H      -0.594165     -1.662896     -6.060778
  H       0.921813     -2.414718     -6.654482
  H       0.903130     -0.688465     -6.151543
  H      -1.007613     -3.213069     -4.203255
  H       0.302766     -3.714832     -3.091655
  H       0.339254     -4.232335     -4.813273
  H       2.898514     -4.034121     -5.190246
  H       2.494861     -4.245949     -3.449572
  H       4.061358     -3.526079     -3.921868
  H       3.298362     -1.560170     -6.056077
  H       4.247905     -1.170609     -4.582687
  H       2.803614     -0.195868     -4.994203
  H       3.012651     -0.458075     -0.616922
  H      -0.685758      2.789150      6.310193
  H      -2.390947      2.359170      6.662000
  H      -1.998582      3.477795      5.309690
  H       0.145271      0.506779      5.950394
  H      -0.764112     -0.674815      4.959078
  H      -1.442267     -0.106808      6.524476
  H      -4.310107      2.455527      4.916662
  H      -4.648857      1.832478      3.266838
  H      -3.331317      3.017924      3.516889
  H      -3.924571      0.000984      5.814952
  H      -2.988315     -1.129541      4.773916
  H      -4.528107     -0.438320      4.184240
  H      -1.984241      0.179423      0.332827
  H       0.116335      1.785834     -2.884751
  H       1.367668      3.534796     -1.797066
60
Coordinates from ORCA-job get_bvl_bvl_rxn1_TS E -1206.019571524095
  C       0.457029     -1.741041     -5.903514
  C       0.830005     -2.139932     -4.478031
  O       0.345030     -1.118162     -3.565800
  C       0.133608     -3.449934     -4.091294
  C       2.386411     -2.152379     -4.175502
  C       3.046116     -3.526062     -4.264500
  C       3.167003     -1.129468     -5.009110
  O       2.438982     -1.702261     -2.795592
  B       1.274542     -1.001128     -2.545716
  C       1.017652     -0.175652     -1.260589
  C       2.071323      0.008629     -0.339228
  C       2.121077      0.863455      0.762955
  H       3.086357      0.963820      1.284614
  C       0.997984      1.735228      1.271322
  H       1.260149      2.137764      2.265201
  C      -0.394402      1.152997      1.315373
  B      -1.168110      1.162815      2.662393
  O      -0.669976      1.751307      3.809454
  C      -1.547981      1.378195      4.906888
  C      -1.663651      2.560784      5.864554
  C      -0.895581      0.183289      5.612045
  C      -2.890698      0.997707      4.152890
  C      -3.817711      2.199017      3.930481
  C      -3.665921     -0.159856      4.776138
  O      -2.409084      0.585270      2.846554
  C      -0.972214      0.595947      0.222892
  C      -0.350229      0.486512     -1.134438
  H      -1.051200      0.002126     -1.836087
  C       0.236950      1.712281     -1.779096
  C       0.971388      2.713737     -1.136991
  C       1.361868      2.735638      0.207449
  H       2.054566      3.534268      0.517467
  H      -0.645111     -1.743053     -6.014871
  H       0.877560     -2.456568     -6.638305
  H       0.821362     -0.726878     -6.148633
  H      -0.962700     -3.297159     -4.127314
  H       0.401020     -3.756095     -3.060851
  H       0.393918     -4.275067     -4.782737
  H       2.959849     -3.945129     -5.287229
  H       2.594378     -4.238128     -3.550169
  H       4.122644     -3.436548     -4.019368
  H       3.240343     -1.432970     -6.071845
  H       4.192055     -1.042407     -4.599363
  H       2.694831     -0.128593     -4.959562
  H       3.014474     -0.499369     -0.602142
  H      -0.678181      2.761809      6.328832
  H      -2.387086      2.344560      6.676304
  H      -1.984976      3.478922      5.339732
  H       0.125260      0.469189      5.932256
  H      -0.807702     -0.685547      4.930683
  H      -1.468402     -0.127274      6.507569
  H      -4.292804      2.532986      4.873676
  H      -4.616588      1.906409      3.221601
  H      -3.269898      3.054906      3.489724
  H      -3.983504      0.087381      5.809033
  H      -3.061816     -1.084998      4.801447
  H      -4.575299     -0.364735      4.177593
  H      -1.985155      0.172636      0.336259
  H       0.123525      1.767327     -2.872809
  H       1.396718      3.499478     -1.782692
60
Coordinates from ORCA-job get_bvl_bvl_rxn1_TS E -1206.019611293734
  C       0.450226     -1.754110     -5.900816
  C       0.830913     -2.145001     -4.475669
  O       0.346613     -1.121948     -3.563939
  C       0.142517     -3.456896     -4.080404
  C       2.386658     -2.148909     -4.178746
  C       3.058553     -3.514122     -4.291102
  C       3.153888     -1.105248     -4.999337
  O       2.437889     -1.716556     -2.792687
  B       1.275832     -1.010447     -2.542287
  C       1.019725     -0.185819     -1.256686
  C       2.073927      0.001370     -0.337594
  C       2.123622      0.857351      0.764519
  H       3.089481      0.961891      1.284095
  C       0.999589      1.726971      1.274614
  H       1.261860      2.129688      2.268522
  C      -0.392216      1.144103      1.319062
  B      -1.166295      1.156509      2.665540
  O      -0.672198      1.754153      3.810132
  C      -1.549866      1.378494      4.907482
  C      -1.663928      2.556461      5.870513
  C      -0.899259      0.178740      5.606115
  C      -2.891582      1.003517      4.151972
  C      -3.803983      2.213167      3.914631
  C      -3.680627     -0.141109      4.780947
  O      -2.406515      0.577077      2.851031
  C      -0.969982      0.585869      0.227134
  C      -0.347963      0.475534     -1.130470
  H      -1.048869     -0.010496     -1.831164
  C       0.234160      1.703446     -1.775738
  C       0.968885      2.704555     -1.134595
  C       1.361668      2.727253      0.209714
  H       2.054728      3.525723      0.519429
  H      -0.652370     -1.760782     -6.007202
  H       0.870049     -2.472613     -6.633147
  H       0.810035     -0.740037     -6.153041
  H      -0.954447     -3.306624     -4.104664
  H       0.422024     -3.762026     -3.052768
  H       0.397230     -4.281547     -4.774489
  H       2.974085     -3.915446     -5.321051
  H       2.614605     -4.242923     -3.588710
  H       4.134832     -3.419161     -4.046936
  H       3.233615     -1.394890     -6.065417
  H       4.176669     -1.008219     -4.586100
  H       2.666854     -0.112056     -4.938546
  H       3.017807     -0.505058     -0.601042
  H      -0.678305      2.754503      6.335726
  H      -2.387128      2.335990      6.681364
  H      -1.985190      3.477520      5.350836
  H       0.124042      0.460199      5.922457
  H      -0.817722     -0.687890      4.921074
  H      -1.468917     -0.132742      6.503292
  H      -4.286324      2.556252      4.850807
  H      -4.597260      1.925803      3.197390
  H      -3.241191      3.060921      3.477016
  H      -4.001774      0.119093      5.809576
  H      -3.085121     -1.071371      4.818854
  H      -4.588491     -0.343388      4.179287
  H      -1.983339      0.163514      0.340720
  H       0.117279      1.759727     -2.869116
  H       1.391003      3.492041     -1.780386
60
Coordinates from ORCA-job get_bvl_bvl_rxn1_TS E -1206.019622455205
  C       0.455707     -1.753701     -5.903313
  C       0.832634     -2.143457     -4.477073
  O       0.349930     -1.117813     -3.566860
  C       0.140153     -3.453082     -4.081078
  C       2.386801     -2.151509     -4.177103
  C       3.056708     -3.516895     -4.294261
  C       3.156514     -1.105213     -4.992478
  O       2.435817     -1.724219     -2.788939
  B       1.276096     -1.012680     -2.541449
  C       1.020232     -0.186231     -1.256992
  C       2.075099      0.004483     -0.339786
  C       2.123850      0.861048      0.762187
  H       3.090205      0.969540      1.280017
  C       0.998183      1.727259      1.273898
  H       1.260409      2.130868      2.267449
  C      -0.392141      1.141321      1.319982
  B      -1.165657      1.154418      2.666680
  O      -0.672165      1.754764      3.810362
  C      -1.549282      1.378173      4.908308
  C      -1.663058      2.555218      5.872289
  C      -0.898653      0.177561      5.605536
  C      -2.890294      1.002807      4.153232
  C      -3.799267      2.214043      3.910332
  C      -3.682039     -0.138122      4.785026
  O      -2.404052      0.571304      2.854010
  C      -0.969949      0.581394      0.228899
  C      -0.348870      0.471690     -1.129413
  H      -1.049217     -0.016558     -1.829125
  C       0.227884      1.701640     -1.775563
  C       0.960929      2.704296     -1.135526
  C       1.356080      2.728158      0.208287
  H       2.048246      3.527806      0.516899
  H      -0.646671     -1.758230     -6.012063
  H       0.875480     -2.474641     -6.633316
  H       0.818256     -0.740869     -6.156714
  H      -0.956222     -3.298237     -4.103057
  H       0.420473     -3.760300     -3.054316
  H       0.389966     -4.278144     -4.776531
  H       2.973145     -3.912174     -5.326607
  H       2.610685     -4.248850     -3.596401
  H       4.132832     -3.425040     -4.048227
  H       3.242338     -1.393160     -6.058568
  H       4.176906     -1.007072     -4.573650
  H       2.667395     -0.113000     -4.932745
  H       3.020148     -0.499297     -0.604107
  H      -0.677707      2.752382      6.338453
  H      -2.386858      2.334026      6.682411
  H      -1.983655      3.477051      5.353622
  H       0.126091      0.457500      5.918533
  H      -0.820975     -0.689415      4.920491
  H      -1.466120     -0.132333      6.504658
  H      -4.285465      2.559147      4.843753
  H      -4.589393      1.927625      3.189284
  H      -3.231709      3.059700      3.474892
  H      -4.002865      0.125871      5.812808
  H      -3.088706     -1.069681      4.826071
  H      -4.590207     -0.340183      4.183757
  H      -1.982625      0.157724      0.343587
  H       0.108930      1.758061     -2.868700
  H       1.379698      3.493226     -1.781751
60
Coordinates from ORCA-job get_bvl_bvl_rxn1_TS E -1206.019628027446
  C       0.459825     -1.751353     -5.906210
  C       0.833721     -2.141193     -4.479289
  O       0.352700     -1.113516     -3.570055
  C       0.136900     -3.448621     -4.083339
  C       2.386961     -2.153752     -4.176981
  C       3.053675     -3.520433     -4.295646
  C       3.160451     -1.107802     -4.989478
  O       2.434814     -1.728459     -2.787905
  B       1.277646     -1.011633     -2.543057
  C       1.021703     -0.185573     -1.258349
  C       2.077602      0.007683     -0.343010
  C       2.125678      0.863424      0.759712
  H       3.092817      0.975510      1.275296
  C       0.998374      1.725448      1.274468
  H       1.260824      2.128721      2.268116
  C      -0.390583      1.136261      1.321913
  B      -1.163386      1.148702      2.669032
  O      -0.671771      1.753652      3.811172
  C      -1.549265      1.378496      4.909539
  C      -1.664252      2.557233      5.871162
  C      -0.898210      0.179444      5.609182
  C      -2.889198      1.000792      4.154480
  C      -3.796687      2.212130      3.905980
  C      -3.682530     -0.137277      4.789126
  O      -2.401331      0.564521      2.857084
  C      -0.968665      0.575837      0.231203
  C      -0.349015      0.468574     -1.128022
  H      -1.048976     -0.020849     -1.827279
  C       0.222546      1.701268     -1.773693
  C       0.953918      2.705066     -1.133703
  C       1.351718      2.728451      0.209412
  H       2.043264      3.528814      0.517521
  H      -0.642347     -1.754502     -6.017117
  H       0.880002     -2.473355     -6.634933
  H       0.824156     -0.739187     -6.159600
  H      -0.958876     -3.289270     -4.103515
  H       0.417549     -3.758118     -3.057383
  H       0.382165     -4.273932     -4.780156
  H       2.969719     -3.912948     -5.329035
  H       2.605641     -4.252891     -3.599653
  H       4.129929     -3.431833     -4.048979
  H       3.251233     -1.396407     -6.054984
  H       4.178876     -1.009563     -4.565897
  H       2.671082     -0.115577     -4.932558
  H       3.023826     -0.492827     -0.609311
  H      -0.679857      2.754739      6.339185
  H      -2.389946      2.337768      6.680077
  H      -1.983278      3.478417      5.350341
  H       0.127339      0.459559      5.919364
  H      -0.822740     -0.689642      4.926616
  H      -1.464319     -0.126959      6.510348
  H      -4.286354      2.559071      4.836915
  H      -4.583959      1.924911      3.182174
  H      -3.226323      3.056409      3.471558
  H      -4.002417      0.129617      5.816463
  H      -3.090835     -1.069764      4.832212
  H      -4.591352     -0.339304      4.188826
  H      -1.980644      0.150735      0.346697
  H       0.101167      1.759197     -2.866473
  H       1.369293      3.496090     -1.779565
60
Coordinates from ORCA-job get_bvl_bvl_rxn1_TS E -1206.019631336908
  C       0.464402     -1.747567     -5.908900
  C       0.835192     -2.139920     -4.481873
  O       0.353799     -1.112945     -3.571909
  C       0.136134     -3.447071     -4.088911
  C       2.387707     -2.154620     -4.177100
  C       3.053261     -3.521689     -4.297777
  C       3.163379     -1.107735     -4.986368
  O       2.433766     -1.731941     -2.787012
  B       1.276817     -1.014450     -2.542830
  C       1.020760     -0.188166     -1.258233
  C       2.077461      0.006641     -0.344020
  C       2.125481      0.862199      0.758712
  H       3.093244      0.976720      1.272575
  C       0.997656      1.722861      1.274477
  H       1.260322      2.126525      2.267938
  C      -0.390939      1.132652      1.323212
  B      -1.163993      1.147816      2.670212
  O      -0.671884      1.754169      3.811398
  C      -1.549038      1.380350      4.910620
  C      -1.663854      2.560223      5.870855
  C      -0.897702      0.182130      5.611465
  C      -2.888891      1.001250      4.156556
  C      -3.796133      2.212202      3.904883
  C      -3.682236     -0.135109      4.794075
  O      -2.400883      0.561856      2.860121
  C      -0.969431      0.571107      0.233284
  C      -0.350851      0.463920     -1.126385
  H      -1.050723     -0.026437     -1.825060
  C       0.218347      1.697398     -1.772705
  C       0.948990      2.702369     -1.133472
  C       1.348309      2.726529      0.209092
  H       2.039907      3.527211      0.516233
  H      -0.637478     -1.751184     -6.022616
  H       0.886861     -2.467969     -6.637901
  H       0.828754     -0.734714     -6.159551
  H      -0.959325     -3.285492     -4.108507
  H       0.416405     -3.759646     -3.063804
  H       0.379577     -4.271135     -4.787866
  H       2.969182     -3.911910     -5.332040
  H       2.604432     -4.255175     -3.603402
  H       4.129567     -3.434639     -4.050778
  H       3.258203     -1.395821     -6.051688
  H       4.180169     -1.009181     -4.558980
  H       2.673194     -0.115846     -4.930763
  H       3.024161     -0.492405     -0.611366
  H      -0.679946      2.756990      6.340213
  H      -2.391073      2.342570      6.678900
  H      -1.980894      3.481282      5.348629
  H       0.128757      0.461938      5.918837
  H      -0.824675     -0.688508      4.930623
  H      -1.462297     -0.121622      6.514516
  H      -4.287332      2.560331      4.834558
  H      -4.582101      1.923784      3.180160
  H      -3.224924      3.055787      3.470269
  H      -3.999607      0.133280      5.821816
  H      -3.091517     -1.068254      4.837067
  H      -4.592610     -0.336852      4.196032
  H      -1.981350      0.146079      0.349521
  H       0.095101      1.755769     -2.865249
  H       1.362393      3.494063     -1.779781
60
Coordinates from ORCA-job get_bvl_bvl_rxn1_TS E -1206.019633804923
  C       0.466879     -1.742777     -5.911834
  C       0.836318     -2.138568     -4.485355
  O       0.354159     -1.113721     -3.573343
  C       0.137016     -3.446687     -4.096136
  C       2.388571     -2.154079     -4.179504
  C       3.053673     -3.521152     -4.302989
  C       3.165254     -1.105608     -4.985725
  O       2.433630     -1.734379     -2.788489
  B       1.277041     -1.016431     -2.544052
  C       1.020641     -0.192395     -1.258029
  C       2.078284      0.002891     -0.344836
  C       2.126474      0.857174      0.758666
  H       3.094961      0.973531      1.270737
  C       0.998422      1.716377      1.276260
  H       1.261630      2.119474      2.269826
  C      -0.389933      1.125452      1.326140
  B      -1.162902      1.142700      2.673213
  O      -0.672150      1.754142      3.812221
  C      -1.549682      1.383806      4.912278
  C      -1.665822      2.566924      5.868334
  C      -0.898053      0.188275      5.617459
  C      -2.888936      1.001876      4.158855
  C      -3.795831      2.212068      3.902249
  C      -3.682746     -0.131868      4.800442
  O      -2.400117      0.557662      2.864260
  C      -0.969081      0.563522      0.236753
  C      -0.351879      0.457238     -1.123545
  H      -1.051835     -0.033458     -1.821886
  C       0.215092      1.691866     -1.769679
  C       0.945111      2.697627     -1.130598
  C       1.346142      2.721618      0.211312
  H       2.037910      3.522345      0.517942
  H      -0.634775     -1.748762     -6.027645
  H       0.892514     -2.459800     -6.642312
  H       0.829202     -0.728266     -6.158627
  H      -0.958361     -3.284461     -4.114557
  H       0.417823     -3.762638     -3.072218
  H       0.379613     -4.268644     -4.797875
  H       2.968457     -3.909465     -5.337882
  H       2.605235     -4.255750     -3.609532
  H       4.130267     -3.434933     -4.056951
  H       3.262945     -1.392441     -6.051123
  H       4.180883     -1.006826     -4.555634
  H       2.674178     -0.114174     -4.930207
  H       3.025396     -0.494321     -0.614095
  H      -0.683097      2.764157      6.339978
  H      -2.395694      2.352858      6.674946
  H      -1.980281      3.486592      5.342048
  H       0.128890      0.469044      5.922312
  H      -0.826266     -0.685320      4.940313
  H      -1.461676     -0.111280      6.522516
  H      -4.288628      2.562706      4.830150
  H      -4.580474      1.921367      3.177020
  H      -3.223968      3.054492      3.466232
  H      -3.997248      0.139099      5.828389
  H      -3.093376     -1.065823      4.844031
  H      -4.594907     -0.333480      4.205070
  H      -1.981058      0.138786      0.353573
  H       0.089725      1.751481     -2.861906
  H       1.356436      3.490357     -1.776958
