38
Coordinates from ORCA-job get_bvl_bvl_rxn1_TS_MEP E -771.284438942961
  C       1.626967      0.648463     -0.754711
  C       2.420428      1.724860     -0.035035
  C       3.342474      1.476518      0.922665
  C       3.705810      0.144411      1.434588
  C       2.663673     -0.979434      1.591635
  C       3.777209     -1.101136      0.532453
  C       3.491770     -1.056051     -0.912343
  C       2.544249     -0.295198     -1.507091
  C       1.236577     -0.822877      1.250431
  C       0.705415     -0.107573      0.216562
  C      -0.767039      0.033848     -0.022710
  C      -1.201740     -0.015366     -1.340923
  C      -2.608538      0.216376     -1.837772
  C      -3.327868      1.418289     -1.276966
  C      -3.525858      1.630863      0.034746
  C      -3.060152      0.712424      1.107370
  C      -1.648198      0.183622      1.112642
  C      -3.264952     -0.769158      1.026019
  C      -3.420621     -1.547273     -0.169897
  C      -3.113608     -1.152863     -1.449669
  H       0.977773      1.154877     -1.489902
  H       2.231914      2.771936     -0.326520
  H       3.875046      2.330049      1.375604
  H       4.472609      0.156283      2.224902
  H       2.839902     -1.609147      2.477772
  H       4.581264     -1.798884      0.813059
  H       4.110533     -1.714452     -1.544536
  H       2.425012     -0.357919     -2.602616
  H       0.541567     -1.367349      1.910225
  H      -0.490505     -0.387863     -2.094355
  H      -2.586158      0.298911     -2.942108
  H      -3.693803      2.169396     -1.995081
  H      -4.046840      2.541971      0.369612
  H      -3.325451      1.080394      2.111172
  H      -1.149776      0.181014      2.095780
  H      -3.554279     -1.269312      1.964546
  H      -3.697263     -2.606083     -0.027938
  H      -3.087545     -1.916566     -2.241609
