60
Coordinates from ORCA-job get_bvl_bvl_rxn1_TS_MEP E -1206.018912306849
  C       0.561708     -1.664797     -5.936736
  C       0.828062     -2.081371     -4.491156
  O       0.373886     -1.012764     -3.617219
  C       0.004573     -3.325630     -4.138846
  C       2.366197     -2.218949     -4.108892
  C       2.885868     -3.654219     -4.047770
  C       3.284790     -1.362507     -4.988755
  O       2.415687     -1.666049     -2.766727
  B       1.280565     -0.901893     -2.578255
  C       1.023107     -0.039354     -1.316386
  C       2.075209      0.130173     -0.378035
  C       2.114659      0.955138      0.736812
  H       3.079077      1.058946      1.260966
  C       0.990048      1.838320      1.226109
  H       1.245074      2.241584      2.220931
  C      -0.395436      1.231868      1.282695
  B      -1.157243      1.193525      2.638489
  O      -0.661391      1.759420      3.796588
  C      -1.526480      1.358641      4.894407
  C      -1.684508      2.548812      5.837779
  C      -0.829430      0.200105      5.617475
  C      -2.859018      0.916499      4.148174
  C      -3.876008      2.054684      3.999975
  C      -3.540474     -0.317757      4.736905
  O      -2.384845      0.585203      2.816248
  C      -0.974361      0.672689      0.191195
  C      -0.363263      0.579031     -1.169723
  H      -1.055046      0.088437     -1.874965
  C       0.235028      1.795441     -1.813569
  C       0.936406      2.827152     -1.167886
  C       1.307234      2.869880      0.174398
  H       1.990430      3.677082      0.481725
  H      -0.530290     -1.586871     -6.107374
  H       0.967996     -2.409279     -6.650235
  H       1.009955     -0.679847     -6.161927
  H      -1.071302     -3.090081     -4.256070
  H       0.170494     -3.635502     -3.088875
  H       0.247692     -4.179816     -4.800530
  H       2.789353     -4.159037     -5.029717
  H       2.343418     -4.246830     -3.288531
  H       3.957620     -3.648437     -3.767021
  H       3.354112     -1.763362     -6.019114
  H       4.301859     -1.356202     -4.550406
  H       2.931462     -0.314648     -5.043360
  H       3.017664     -0.377090     -0.644268
  H      -0.707289      2.788769      6.301572
  H      -2.404379      2.322597      6.649707
  H      -2.032002      3.448862      5.298380
  H       0.175674      0.529980      5.945375
  H      -0.699037     -0.673054      4.949397
  H      -1.399540     -0.122461      6.510480
  H      -4.334039      2.322307      4.972491
  H      -4.682635      1.729306      3.314363
  H      -3.410265      2.961952      3.568988
  H      -3.838432     -0.144139      5.790402
  H      -2.879948     -1.202952      4.696093
  H      -4.454581     -0.552486      4.156324
  H      -1.976510      0.226514      0.310640
  H       0.116818      1.856594     -2.905603
  H       1.346023      3.617871     -1.817138
