60
Coordinates from ORCA-job get_bvl_bvl_rxn1_TS_MEP E -1206.024288415807
  C       0.558637     -1.667841     -5.938452
  C       0.822974     -2.079419     -4.491375
  O       0.361896     -0.999935     -3.631387
  C       0.003814     -3.325357     -4.136216
  C       2.359875     -2.208501     -4.102102
  C       2.884756     -3.643107     -4.035767
  C       3.279362     -1.359071     -4.988497
  O       2.400196     -1.630385     -2.765371
  B       1.274553     -0.843466     -2.608681
  C       1.037552      0.125118     -1.403764
  C       2.081897      0.150976     -0.378883
  C       2.116002      0.895133      0.763909
  H       3.068019      0.959748      1.315632
  C       1.018553      1.841623      1.207831
  H       1.262240      2.242310      2.208502
  C      -0.379153      1.237814      1.281255
  B      -1.144609      1.200624      2.637191
  O      -0.654794      1.762553      3.799821
  C      -1.523810      1.360485      4.893519
  C      -1.685073      2.549594      5.837843
  C      -0.830352      0.200836      5.618620
  C      -2.854466      0.918727      4.143143
  C      -3.874529      2.054987      3.998609
  C      -3.536787     -0.317092      4.729829
  O      -2.375823      0.592883      2.811582
  C      -0.977649      0.670748      0.201980
  C      -0.415815      0.555404     -1.157496
  H      -1.092291      0.066626     -1.874194
  C       0.376227      1.647843     -1.810685
  C       0.957906      2.807815     -1.156119
  C       1.266072      2.915869      0.169384
  H       1.913226      3.750274      0.484679
  H      -0.533601     -1.590895     -6.106323
  H       0.965859     -2.410260     -6.653416
  H       1.003466     -0.680851     -6.160762
  H      -1.072846     -3.095200     -4.254660
  H       0.171292     -3.635998     -3.086923
  H       0.250408     -4.178874     -4.798101
  H       2.787507     -4.146860     -5.018964
  H       2.346325     -4.242579     -3.279506
  H       3.958150     -3.639074     -3.761246
  H       3.346652     -1.764874     -6.017204
  H       4.297302     -1.350576     -4.552470
  H       2.927301     -0.311293     -5.047867
  H       2.996978     -0.401484     -0.647007
  H      -0.708712      2.789691      6.302989
  H      -2.406251      2.322336      6.648503
  H      -2.031688      3.449836      5.298328
  H       0.174243      0.529328      5.948940
  H      -0.699242     -0.672635      4.951141
  H      -1.403103     -0.120956      6.510375
  H      -4.332168      2.319228      4.972448
  H      -4.681487      1.729381      3.313459
  H      -3.411186      2.964028      3.569216
  H      -3.835280     -0.144883      5.783584
  H      -2.877662     -1.203194      4.689286
  H      -4.451585     -0.551089      4.150000
  H      -1.981188      0.233244      0.337672
  H       0.178736      1.768570     -2.887035
  H       1.323172      3.602113     -1.828796
