43
	Energy:      35.7773442
C         -0.96626        0.15758        0.15091
C         -2.23252        0.90490       -0.31203
C         -3.49175        0.13773        0.11325
C         -3.47513       -1.29865       -0.40539
C         -2.20435       -2.04099        0.00321
C         -0.94083       -1.27593       -0.41476
C          0.32455       -2.02216        0.03381
C          1.59961       -1.25220       -0.34136
C          1.56542        0.17978        0.22764
C          2.84366        0.95148       -0.15499
C          4.08859        0.20476        0.34221
C          4.12927       -1.22800       -0.18484
C          2.85105       -1.99597        0.14561
C          0.30602        0.93040       -0.24392
C         -2.25363        2.33946        0.23216
C         -0.98226        3.10356       -0.13710
H         -2.36018        2.32388        1.32424
H         -3.12450        2.87553       -0.16365
C          0.27506        2.36007        0.33088
H         -1.01705        4.10156        0.31577
H         -0.94946        3.24872       -1.22433
H          0.23935        2.29622        1.42790
H          1.52719        0.10847        1.32552
H          0.33883        1.00164       -1.34165
H         -2.22422        0.96176       -1.40989
H         -4.38644        0.64783       -0.26298
H         -3.56990        0.12514        1.20788
H         -2.20805       -2.18987        1.09046
H         -2.20609       -3.03789       -0.45348
H         -4.35185       -1.83593       -0.02607
H         -3.55538       -1.29059       -1.49928
H          1.64732       -1.19225       -1.43807
H          0.29472       -2.18209        1.11945
H          0.34718       -3.01578       -0.43115
H          2.79455       -2.15134        1.23046
H          2.89796       -2.98988       -0.31523
H          4.27233       -1.21101       -1.27222
H          4.99253       -1.75164        0.24146
H          4.99492        0.73329        0.02375
H          4.10039        0.18630        1.43946
H          2.90069        1.01402       -1.25108
H         -0.92729       -1.21906       -1.51258
H         -0.99437        0.08901        1.24928
