60
Coordinates from ORCA-job get_bvl_bvl_rxn1_TS_MEP E -1206.030537951636
  C       0.550381     -1.685224     -5.903564
  C       0.830382     -2.118193     -4.464943
  O       0.384379     -1.070103     -3.564529
  C       0.006183     -3.363289     -4.119236
  C       2.371561     -2.260026     -4.098473
  C       2.893589     -3.693929     -4.060373
  C       3.277197     -1.385694     -4.975069
  O       2.430923     -1.740825     -2.743569
  B       1.288046     -1.002272     -2.518274
  C       1.035903     -0.120221     -1.268399
  C       2.075534      0.168856     -0.423396
  C       2.146765      1.245043      0.564411
  H       3.095066      1.296920      1.121803
  C       0.955881      1.856047      1.294888
  H       1.231579      2.248473      2.284572
  C      -0.397448      1.244042      1.267877
  B      -1.174715      1.186109      2.617697
  O      -0.674747      1.743767      3.780735
  C      -1.534777      1.338514      4.879815
  C      -1.688961      2.521893      5.833576
  C      -0.837402      0.176855      5.598270
  C      -2.869551      0.903017      4.134213
  C      -3.881731      2.046295      3.996589
  C      -3.552016     -0.330762      4.721796
  O      -2.401087      0.578176      2.796734
  C      -0.939401      0.707537      0.139763
  C      -0.282604      0.653807     -1.222448
  H      -0.986628      0.168599     -1.923178
  C       0.116015      2.000863     -1.792405
  C       0.945341      2.868523     -1.157917
  C       1.555499      2.669465      0.163282
  H       2.189387      3.505782      0.495251
  H      -0.542761     -1.604625     -6.064491
  H       0.949894     -2.424955     -6.626341
  H       0.997335     -0.699446     -6.126311
  H      -1.068717     -3.120063     -4.227893
  H       0.175097     -3.675487     -3.070678
  H       0.240947     -4.216252     -4.784637
  H       2.789965     -4.192432     -5.044338
  H       2.357719     -4.289760     -3.299152
  H       3.966550     -3.686698     -3.785274
  H       3.340725     -1.777856     -6.009777
  H       4.297744     -1.373387     -4.545463
  H       2.913794     -0.340747     -5.018439
  H       3.019669     -0.377839     -0.591125
  H      -0.711667      2.754206      6.300787
  H      -2.407944      2.290426      6.644667
  H      -2.034622      3.428951      5.305333
  H       0.166570      0.506839      5.929336
  H      -0.706083     -0.693961      4.927535
  H      -1.407393     -0.148767      6.490400
  H      -4.336595      2.308072      4.972121
  H      -4.690874      1.730111      3.310110
  H      -3.411708      2.954941      3.573258
  H      -3.846306     -0.157189      5.776483
  H      -2.893848     -1.217493      4.678715
  H      -4.468591     -0.561720      4.144179
  H      -1.942022      0.255198      0.226462
  H      -0.183371      2.207773     -2.832343
  H       1.277950      3.764111     -1.708626
