60
Coordinates from ORCA-job get_bvl_bvl_rxn1_TS_MEP E -1206.032640474264
  C       0.489848     -1.797203     -5.847534
  C       0.799436     -2.154811     -4.395058
  O       0.377849     -1.056530     -3.544425
  C      -0.020812     -3.375459     -3.963870
  C       2.345279     -2.284067     -4.052222
  C       2.871038     -3.715316     -3.981490
  C       3.232358     -1.433492     -4.970238
  O       2.424767     -1.718435     -2.716675
  B       1.297681     -0.947208     -2.516943
  C       1.074463      0.000721     -1.311648
  C       2.114558      0.278224     -0.466693
  C       2.190098      1.346352      0.532115
  H       3.140089      1.391910      1.086465
  C       0.992260      1.917992      1.292222
  H       1.263011      2.276631      2.296125
  C      -0.357885      1.300440      1.237978
  B      -1.146598      1.197083      2.578792
  O      -0.661833      1.721630      3.763495
  C      -1.528039      1.269820      4.839536
  C      -1.688424      2.409558      5.843432
  C      -0.834759      0.076155      5.507539
  C      -2.856612      0.868833      4.067361
  C      -3.853274      2.027782      3.946955
  C      -3.559470     -0.372934      4.612321
  O      -2.372104      0.577580      2.727577
  C      -0.897218      0.798493      0.092611
  C      -0.234932      0.791085     -1.268783
  H      -0.933576      0.324763     -1.987332
  C       0.131873      2.170603     -1.780961
  C       0.961585      3.017190     -1.120871
  C       1.595378      2.764724      0.182290
  H       2.229128      3.590037      0.540954
  H      -0.606415     -1.720001     -5.986871
  H       0.870104     -2.576077     -6.538597
  H       0.934898     -0.826299     -6.130925
  H      -1.096818     -3.129955     -4.054373
  H       0.177208     -3.636343     -2.906218
  H       0.190331     -4.262069     -4.592246
  H       2.748937     -4.240866     -4.949296
  H       2.351262     -4.290875     -3.193978
  H       3.949508     -3.699178     -3.729218
  H       3.283611     -1.857460     -5.992838
  H       4.258537     -1.401458     -4.555396
  H       2.860865     -0.392729     -5.040694
  H       3.046486     -0.294680     -0.615501
  H      -0.714233      2.620790      6.326693
  H      -2.412836      2.141152      6.638123
  H      -2.030902      3.338737      5.352955
  H       0.170053      0.389772      5.851648
  H      -0.705304     -0.764809      4.799137
  H      -1.405265     -0.286378      6.384904
  H      -4.322541      2.267590      4.921366
  H      -4.653276      1.741944      3.236873
  H      -3.363499      2.941720      3.558690
  H      -3.865567     -0.224556      5.667613
  H      -2.910180     -1.265344      4.553843
  H      -4.471274     -0.578392      4.017721
  H      -1.900032      0.342904      0.161420
  H      -0.221055      2.444200     -2.788245
  H       1.252230      3.956510     -1.619616
