60
Coordinates from ORCA-job get_bvl_bvl_rxn1_TS_MEP E -1206.034469998807
  C       0.396855     -1.956640     -5.750681
  C       0.750042     -2.198171     -4.285357
  O       0.361795     -1.029816     -3.514784
  C      -0.057691     -3.375990     -3.728393
  C       2.302916     -2.308307     -3.979093
  C       2.834236     -3.733692     -3.853340
  C       3.162277     -1.501213     -4.960513
  O       2.413413     -1.668771     -2.679392
  B       1.307016     -0.856885     -2.519803
  C       1.126353      0.174945     -1.378385
  C       2.168851      0.436700     -0.532702
  C       2.248625      1.486269      0.487232
  H       3.198755      1.513956      1.042330
  C       1.042742      1.999094      1.286066
  H       1.309748      2.305965      2.308380
  C      -0.301727      1.376208      1.194057
  B      -1.102849      1.209990      2.519386
  O      -0.638002      1.683940      3.733106
  C      -1.513837      1.167632      4.772477
  C      -1.683372      2.240804      5.845122
  C      -0.826960     -0.069189      5.363888
  C      -2.833350      0.819781      3.964094
  C      -3.807290      2.000716      3.871652
  C      -3.565467     -0.431848      4.442766
  O      -2.326999      0.577900      2.622801
  C      -0.840023      0.924572      0.026009
  C      -0.172130      0.982611     -1.331637
  H      -0.864617      0.546398     -2.074584
  C       0.161953      2.398343     -1.762529
  C       0.981613      3.220101     -1.062970
  C       1.642567      2.901059      0.214100
  H       2.265639      3.715692      0.613614
  H      -0.703144     -1.885519     -5.861001
  H       0.752699     -2.790315     -6.388713
  H       0.834525     -1.013157     -6.124794
  H      -1.135443     -3.129712     -3.792410
  H       0.185850     -3.555747     -2.663230
  H       0.123502     -4.309241     -4.295942
  H       2.684451     -4.302576     -4.792561
  H       2.338579     -4.273714     -3.026053
  H       3.919996     -3.705973     -3.635466
  H       3.195197     -1.975509     -5.961257
  H       4.196400     -1.441168     -4.569054
  H       2.780573     -0.467766     -5.074048
  H       3.084614     -0.165212     -0.664886
  H      -0.714175      2.420431      6.350655
  H      -2.416122      1.920935      6.612722
  H      -2.021356      3.198884      5.410236
  H       0.179395      0.218409      5.725837
  H      -0.700440     -0.862820      4.601893
  H      -1.397763     -0.486327      6.216464
  H      -4.296910      2.207445      4.843577
  H      -4.593531      1.760240      3.129973
  H      -3.291317      2.920808      3.534694
  H      -3.890027     -0.323125      5.497365
  H      -2.928745     -1.331312      4.358678
  H      -4.468249     -0.596358      3.822306
  H      -1.842730      0.466051      0.072634
  H      -0.237801      2.742398     -2.730212
  H       1.220891      4.207797     -1.490324
