38
Coordinates from ORCA-job get_bvl_bvl_rxn1_TS_MEP E -771.282339158330
  C       1.625005      0.646890     -0.759137
  C       2.416502      1.724295     -0.038297
  C       3.338728      1.475663      0.919894
  C       3.704268      0.144486      1.432696
  C       2.666475     -0.982793      1.589735
  C       3.778843     -1.101471      0.529994
  C       3.491640     -1.056103     -0.914413
  C       2.544140     -0.295612     -1.510721
  C       1.240785     -0.832789      1.243278
  C       0.711840     -0.116964      0.210715
  C      -0.764899      0.042402      0.001542
  C      -1.254998     -0.102410     -1.330445
  C      -2.620999      0.257136     -1.854062
  C      -3.332347      1.435406     -1.270196
  C      -3.520328      1.615841      0.048817
  C      -3.036778      0.659670      1.106266
  C      -1.562628      0.325922      1.112129
  C      -3.436897     -0.789275      1.006340
  C      -3.434285     -1.547481     -0.156001
  C      -3.001935     -1.135448     -1.436069
  H       0.972690      1.151923     -1.493856
  H       2.227323      2.771378     -0.328711
  H       3.871035      2.329775      1.372138
  H       4.471814      0.158055      2.222394
  H       2.843400     -1.611119      2.477153
  H       4.584282     -1.797763      0.810286
  H       4.110866     -1.713925     -1.546533
  H       2.425961     -0.358477     -2.606165
  H       0.542293     -1.371937      1.904337
  H      -0.537784     -0.470873     -2.080327
  H      -2.589251      0.323048     -2.955624
  H      -3.701455      2.191945     -1.980372
  H      -4.042185      2.522671      0.392756
  H      -3.315556      1.048775      2.103029
  H      -1.083773      0.270723      2.100719
  H      -3.657608     -1.298015      1.956031
  H      -3.691439     -2.614745     -0.050881
  H      -2.982744     -1.898802     -2.228440
