60
Generated by autodE on: 2022-07-09. E = -82.299826 Ha
C     3.46151 -37.75882  15.92146
C     3.71246 -38.14193  17.37829
O     3.24514 -37.09661  18.23126
C     2.89067 -39.39247  17.71518
C     5.22798 -38.27710  17.77764
C     5.73698 -39.71132  17.90241
C     6.16413 -37.48953  16.85282
O     5.28435 -37.64580  19.05761
B     4.15039 -36.91025  19.23946
C     3.90264 -35.96811  20.46289
C     4.93745 -35.85886  21.42651
C     4.97261 -34.97027  22.47655
H     5.91170 -34.88328  23.01001
C     3.81924 -34.24939  23.09139
H     4.05640 -33.85203  24.07515
C     2.46006 -34.86956  23.11877
B     1.71094 -34.88925  24.48528
O     2.21636 -34.38009  25.65074
C     1.34765 -34.74223  26.72359
C     1.20039 -33.56428  27.68401
C     2.01451 -35.91070  27.46091
C     0.02575 -35.16262  25.98404
C    -0.99122 -34.01873  25.88157
C    -0.66682 -36.39907  26.55260
O     0.47169 -35.43980  24.65772
C     1.89745 -35.42898  22.04625
C     2.46824 -35.53839  20.69409
H     1.78891 -36.03142  20.00548
C     3.23497 -34.43763  20.04230
C     3.85409 -33.34637  20.67955
C     4.26739 -33.34665  21.99471
H     4.88609 -32.51452  22.30906
H     2.38898 -37.70497  15.75143
H     3.88522 -38.50832  15.25874
H     3.88727 -36.78783  15.69006
H     1.83808 -39.16621  17.56072
H     3.02624 -39.66203  18.75949
H     3.16898 -40.22785  17.07983
H     5.63136 -40.23421  16.95583
H     5.20197 -40.25034  18.67740
H     6.78883 -39.68672  18.17587
H     6.20187 -37.93248  15.86227
H     7.16245 -37.49963  17.28405
H     5.84089 -36.45402  16.78186
H     5.87170 -36.32357  21.13948
H     2.16126 -33.36928  28.15386
H     0.47307 -33.79971  28.45636
H     0.89391 -32.66532  27.15920
H     2.99565 -35.58919  27.80296
H     2.15370 -36.75049  26.78473
H     1.42553 -36.22140  28.31864
H    -1.41177 -33.77707  26.85306
H    -1.79260 -34.33030  25.21561
H    -0.52279 -33.13689  25.45179
H    -0.93717 -36.23636  27.59236
H    -0.03001 -37.27424  26.47488
H    -1.57062 -36.58901  25.97904
H     0.91457 -35.86497  22.16516
H     3.07810 -34.34753  18.97550
H     4.27887 -32.59110  20.03025
