60
Generated by autodE on: 2022-07-09. E = -82.271770 Ha
C     3.63118 -37.62442  15.87363
C     3.75156 -38.10165  17.31913
O     3.31664 -37.06914  18.20147
C     2.81029 -39.29431  17.53330
C     5.21899 -38.38996  17.80246
C     5.61095 -39.86570  17.82513
C     6.27181 -37.60303  17.01110
O     5.22928 -37.87559  19.13264
B     4.15011 -37.04480  19.29247
C     3.87422 -36.23561  20.57637
C     4.87985 -36.08952  21.54802
C     4.90040 -35.30247  22.65339
H     5.79789 -35.27701  23.25358
C     3.84903 -34.24570  23.00380
H     4.08794 -33.85371  23.99511
C     2.46848 -34.85657  23.07955
B     1.73513 -34.87279  24.45603
O     2.23870 -34.30577  25.59430
C     1.40936 -34.66872  26.69658
C     1.22063 -33.46096  27.61203
C     2.15146 -35.76963  27.46523
C     0.09659 -35.18489  26.00094
C    -0.98948 -34.10661  25.89639
C    -0.50840 -36.44317  26.62020
O     0.52589 -35.47218  24.67078
C     1.91187 -35.41578  22.00470
C     2.52884 -35.49990  20.65182
H     1.83929 -35.98969  19.96270
C     3.00015 -34.20966  20.02791
C     3.63895 -33.16521  20.68829
C     3.94590 -33.08616  22.01325
H     4.47791 -32.21609  22.36879
H     2.58046 -37.47144  15.63967
H     4.03685 -38.37167  15.19695
H     4.14927 -36.68245  15.72565
H     1.79092 -38.96893  17.33794
H     2.86276 -39.63249  18.56522
H     3.05427 -40.11357  16.86378
H     5.52021 -40.29459  16.83081
H     4.99255 -40.42458  18.51993
H     6.64436 -39.95008  18.15209
H     6.35396 -37.97103  15.99280
H     7.23265 -37.71703  17.50782
H     6.02268 -36.54476  17.00218
H     5.74651 -36.71731  21.36893
H     2.18010 -33.19834  28.05075
H     0.52299 -33.69977  28.41016
H     0.85792 -32.60125  27.05807
H     3.11856 -35.38103  27.77622
H     2.32676 -36.62580  26.81871
H     1.59526 -36.07888  28.34499
H    -1.39449 -33.86006  26.87326
H    -1.79063 -34.48503  25.26578
H    -0.58777 -33.21247  25.42658
H    -0.76905 -36.26393  27.65978
H     0.17868 -37.28059  26.55675
H    -1.40939 -36.70570  26.07141
H     0.93345 -35.86484  22.11063
H     2.95410 -34.18602  18.95006
H     3.88837 -32.30698  20.07179
