60
Generated by autodE on: 2022-07-09. E = -82.308157 Ha
C     3.34109 -37.92836  16.06057
C     3.64959 -38.22195  17.52706
O     3.21892 -37.12578  18.33172
C     2.83888 -39.44484  17.97491
C     5.17924 -38.33925  17.87323
C     5.69027 -39.76716  18.05218
C     6.07831 -37.60732  16.86896
O     5.28639 -37.63836  19.11285
B     4.16029 -36.88624  19.29442
C     3.95654 -35.87031  20.46332
C     4.97343 -35.66280  21.33287
C     5.04458 -34.63661  22.35754
H     5.98032 -34.64457  22.90753
C     3.85976 -34.09413  23.12107
H     4.09986 -33.74881  24.11936
C     2.51610 -34.70624  23.06038
B     1.73371 -34.82491  24.40694
O     2.22270 -34.40320  25.61323
C     1.34950 -34.85934  26.64589
C     1.18556 -33.76546  27.69834
C     2.02411 -36.07801  27.28887
C     0.03753 -35.23012  25.86357
C    -0.99013 -34.09150  25.84819
C    -0.64667 -36.51478  26.32584
O     0.49715 -35.39418  24.52239
C     1.98383 -35.19488  21.93775
C     2.60789 -35.23313  20.58631
H     1.91841 -35.68522  19.87467
C     3.20827 -34.00223  20.02419
C     3.94114 -33.09470  20.68569
C     4.48644 -33.28097  22.02345
H     5.07298 -32.43410  22.36647
H     2.26275 -37.87757  15.93150
H     3.73395 -38.71980  15.42815
H     3.76141 -36.97624  15.75338
H     1.78149 -39.22014  17.85457
H     3.02001 -39.65098  19.02679
H     3.08438 -40.31923  17.37988
H     5.53770 -40.33829  17.14043
H     5.19079 -40.26172  18.87878
H     6.75411 -39.73469  18.27349
H     6.07547 -38.10467  15.90375
H     7.09335 -37.59687  17.25928
H     5.75315 -36.57641  16.75420
H     5.90036 -36.18324  21.13026
H     2.14284 -33.59999  28.18645
H     0.45801 -34.07038  28.44571
H     0.87195 -32.82978  27.24715
H     3.00043 -35.77563  27.66082
H     2.17513 -36.85774  26.54653
H     1.43478 -36.46395  28.11513
H    -1.41749 -33.93464  26.83405
H    -1.78544 -34.35455  25.15464
H    -0.52814 -33.17299  25.49527
H    -0.92190 -36.43864  27.37429
H    -0.00236 -37.37575  26.18074
H    -1.54702 -36.66539  25.73547
H     0.99859 -35.63526  22.00211
H     2.99203 -33.81390  18.97913
H     4.33737 -32.24913  20.13807
