60
Generated by autodE on: 2022-07-09. E = -82.294113 Ha
C     3.63805 -37.56203  15.81859
C     3.79362 -38.08179  17.24599
O     3.30157 -37.10782  18.16553
C     2.92809 -39.33641  17.42015
C     5.27838 -38.29584  17.71461
C     5.76072 -39.74419  17.68463
C     6.27698 -37.41810  16.94920
O     5.26296 -37.82714  19.06245
B     4.14053 -37.06656  19.25120
C     3.84525 -36.27688  20.54689
C     4.83982 -36.21910  21.58051
C     4.85423 -35.46997  22.69016
H     5.69816 -35.54095  23.36034
C     3.82983 -34.39569  23.02589
H     4.08309 -33.97646  24.00204
C     2.44652 -34.99893  23.13621
B     1.71992 -34.93514  24.51542
O     2.25321 -34.34629  25.62849
C     1.40525 -34.61516  26.74363
C     1.28743 -33.36224  27.60879
C     2.08074 -35.72570  27.55843
C     0.06549 -35.08220  26.06631
C    -0.94741 -33.94227  25.89903
C    -0.62139 -36.26514  26.74512
O     0.48130 -35.46203  24.75474
C     1.86703 -35.59909  22.09233
C     2.42673 -35.73988  20.73300
H     1.73315 -36.25105  20.06856
C     3.07128 -34.56843  20.05550
C     3.60911 -33.41914  20.69792
C     3.88590 -33.27233  22.00286
H     4.29023 -32.33380  22.35216
H     2.57906 -37.46940  15.59042
H     4.08957 -38.25682  15.11562
H     4.09372 -36.58378  15.70402
H     1.88985 -39.06749  17.23882
H     3.00598 -39.70773  18.43900
H     3.21880 -40.11455  16.72089
H     5.69519 -40.14133  16.67524
H     5.17934 -40.36547  18.35802
H     6.79789 -39.77598  18.00889
H     6.37801 -37.74452  15.91849
H     7.24479 -37.48924  17.44027
H     5.96286 -36.37765  16.97785
H     5.67290 -36.88865  21.39788
H     2.26044 -33.13873  28.03928
H     0.57651 -33.52733  28.41391
H     0.97593 -32.50583  27.01961
H     3.07021 -35.38409  27.85379
H     2.20208 -36.61759  26.94879
H     1.50811 -35.96312  28.44993
H    -1.34351 -33.62381  26.85861
H    -1.76612 -34.29768  25.27761
H    -0.48418 -33.09943  25.39229
H    -0.86753 -36.01748  27.77420
H     0.00815 -37.14877  26.72457
H    -1.53906 -36.49349  26.20879
H     0.88587 -36.03186  22.23862
H     2.99375 -34.55984  18.98063
H     3.78945 -32.57755  20.03711
