60
Generated by autodE on: 2022-07-09. E = -82.276278 Ha
C     3.28766 -38.05767  16.13775
C     3.60484 -38.24770  17.61941
O     3.24609 -37.07243  18.34262
C     2.74342 -39.39005  18.17445
C     5.12994 -38.42018  17.95602
C     5.57886 -39.85974  18.19759
C     6.04570 -37.77693  16.90640
O     5.28190 -37.67082  19.15974
B     4.20005 -36.83940  19.30120
C     4.04351 -35.82550  20.45645
C     5.07436 -35.60181  21.33500
C     5.11117 -34.78906  22.46268
H     6.06652 -34.62461  22.93866
C     3.95691 -34.00733  23.05036
H     4.16950 -33.74241  24.08689
C     2.60472 -34.65250  22.98820
B     1.82571 -34.85067  24.32364
O     2.29153 -34.46619  25.55143
C     1.40037 -34.95483  26.55340
C     1.20378 -33.88673  27.62686
C     2.06900 -36.18364  27.18284
C     0.10786 -35.31608  25.73426
C    -0.93053 -34.18701  25.72646
C    -0.57319 -36.61990  26.14361
O     0.59470 -35.43777  24.39913
C     2.08315 -35.07635  21.83578
C     2.74994 -34.98336  20.50005
H     2.08276 -35.40091  19.74342
C     3.07706 -33.55342  20.08461
C     3.80039 -32.67764  20.82671
C     4.23633 -32.83704  22.14540
H     4.93585 -32.11088  22.53282
H     2.21050 -37.97372  16.01569
H     3.64004 -38.91212  15.56603
H     3.74146 -37.15097  15.75101
H     1.69610 -39.12070  18.05798
H     2.93938 -39.52368  19.23548
H     2.93076 -40.31927  17.64456
H     5.38486 -40.46949  17.31927
H     5.07178 -40.28733  19.05641
H     6.64684 -39.86477  18.40115
H     6.01692 -38.32714  15.97059
H     7.06421 -37.77991  17.28797
H     5.75414 -36.74355  16.73568
H     5.98655 -36.15388  21.13263
H     2.14761 -33.72560  28.14192
H     0.46072 -34.21359  28.34923
H     0.89389 -32.94313  27.18964
H     3.03315 -35.88412  27.58740
H     2.24453 -36.94379  26.42574
H     1.46169 -36.59416  27.98390
H    -1.38120 -34.05919  26.70599
H    -1.70726 -34.44033  25.00864
H    -0.47049 -33.25548  25.40644
H    -0.87626 -36.57699  27.18612
H     0.08439 -37.46932  25.99016
H    -1.45590 -36.76239  25.52527
H     1.10953 -35.54661  21.86357
H     2.86184 -33.30964  19.05548
H     4.07411 -31.73556  20.36203
