60
Generated by autodE on: 2022-07-09. E = -82.297599 Ha
C     3.47384 -37.74020  15.93201
C     3.72016 -38.17098  17.37631
O     3.24165 -37.16127  18.26312
C     2.90780 -39.43947  17.66670
C     5.23406 -38.30907  17.77706
C     5.76082 -39.74162  17.82186
C     6.16337 -37.45962  16.90050
O     5.27519 -37.74693  19.08794
B     4.13636 -37.01627  19.29048
C     3.88391 -36.13297  20.54254
C     4.91877 -35.92275  21.43693
C     4.96128 -35.04768  22.51291
H     5.90973 -34.92767  23.01761
C     3.81937 -34.26593  23.09027
H     4.05580 -33.87767  24.07923
C     2.45234 -34.87084  23.11306
B     1.69849 -34.88622  24.47906
O     2.21212 -34.36931  25.63714
C     1.35128 -34.72299  26.71897
C     1.21399 -33.53746  27.67143
C     2.02416 -35.88626  27.45887
C     0.02379 -35.14777  25.99197
C    -0.99344 -34.00410  25.89117
C    -0.66463 -36.37945  26.57590
O     0.46008 -35.43311  24.66319
C     1.90197 -35.41860  22.02975
C     2.51269 -35.51212  20.67917
H     1.82220 -35.99669  19.98994
C     3.10483 -34.29622  20.04896
C     3.83075 -33.31983  20.67883
C     4.23432 -33.31752  22.01134
H     4.90719 -32.53019  22.32173
H     2.40200 -37.69588  15.75524
H     3.91378 -38.45878  15.24585
H     3.88718 -36.75541  15.73964
H     1.85339 -39.21421  17.52319
H     3.04765 -39.74663  18.70012
H     3.19038 -40.24845  16.99980
H     5.66132 -40.20997  16.84640
H     5.23190 -40.33081  18.56378
H     6.81234 -39.72055  18.09704
H     6.21734 -37.85085  15.88906
H     7.15831 -37.47351  17.33960
H     5.82106 -36.42796  16.87962
H     5.85415 -36.40274  21.17483
H     2.18032 -33.33913  28.12852
H     0.49547 -33.76614  28.45393
H     0.90215 -32.64259  27.14278
H     3.00833 -35.56204  27.78952
H     2.15749 -36.73078  26.78742
H     1.44316 -36.19080  28.32415
H    -1.40455 -33.75639  26.86522
H    -1.80139 -34.31884  25.23475
H    -0.52836 -33.12521  25.45188
H    -0.92254 -36.20847  27.61757
H    -0.03057 -37.25657  26.49765
H    -1.57556 -36.57198  26.01466
H     0.91578 -35.85162  22.12785
H     2.96827 -34.22186  18.97983
H     4.25068 -32.54001  20.05388
