60
Generated by autodE on: 2022-07-09. E = -82.320745 Ha
C     3.60797 -37.65067  15.81827
C     3.78917 -38.09369  17.26815
O     3.30925 -37.06924  18.14084
C     2.93174 -39.33946  17.52385
C     5.28147 -38.27600  17.72591
C     5.77159 -39.72097  17.77435
C     6.26322 -37.43639  16.89910
O     5.28243 -37.72831  19.04575
B     4.16697 -36.95730  19.20177
C     3.89721 -36.03849  20.43773
C     4.86581 -36.11427  21.53599
C     4.87066 -35.41430  22.66575
H     5.65139 -35.59245  23.39144
C     3.86040 -34.34964  23.02417
H     4.11440 -33.93850  24.00328
C     2.48330 -34.97555  23.12974
B     1.74988 -34.93219  24.50463
O     2.27745 -34.37682  25.63836
C     1.41190 -34.66148  26.73611
C     1.30364 -33.43243  27.63588
C     2.05650 -35.80732  27.52685
C     0.07289 -35.08661  26.03153
C    -0.91658 -33.92419  25.87795
C    -0.64748 -36.26780  26.67798
O     0.49961 -35.44642  24.71827
C     1.90091 -35.57319  22.08023
C     2.42241 -35.70992  20.72138
H     1.74088 -36.22192  20.05126
C     3.23047 -34.62671  20.05396
C     3.60044 -33.38431  20.71968
C     3.85317 -33.22615  22.01563
H     4.09893 -32.24258  22.38983
H     2.54482 -37.57665  15.60293
H     4.05319 -38.37771  15.14463
H     4.05425 -36.67656  15.64643
H     1.88962 -39.08598  17.34300
H     3.02624 -39.65553  18.55974
H     3.21651 -40.15312  16.86353
H     5.69707 -40.17769  16.79111
H     5.20178 -40.30494  18.48973
H     6.81265 -39.72832  18.08743
H     6.35192 -37.81730  15.88618
H     7.23822 -37.47408  17.37930
H     5.94168 -36.39807  16.87617
H     5.64367 -36.84856  21.36689
H     2.27434 -33.23689  28.08484
H     0.58018 -33.60990  28.42721
H     1.01218 -32.55444  27.06867
H     3.05140 -35.49661  27.83756
H     2.16113 -36.68620  26.89557
H     1.47190 -36.05394  28.40813
H    -1.31690 -33.62013  26.84052
H    -1.73536 -34.25124  25.24116
H    -0.43347 -33.07872  25.39480
H    -0.89740 -36.03506  27.70966
H    -0.03907 -37.16559  26.64507
H    -1.56537 -36.46284  26.12908
H     0.92253 -36.00953  22.23853
H     3.06062 -34.53598  18.98977
H     3.64338 -32.52015  20.06667
