60
Generated by autodE on: 2022-07-09. E = -82.303856 Ha
C     3.48851 -37.72269  15.89895
C     3.73477 -38.13867  17.34732
O     3.26249 -37.11482  18.22262
C     2.91635 -39.39964  17.65289
C     5.24752 -38.28031  17.75034
C     5.76801 -39.71469  17.80511
C     6.18005 -37.43985  16.86907
O     5.28870 -37.70843  19.05829
B     4.15551 -36.96948  19.25169
C     3.89205 -36.08569  20.50227
C     4.91629 -35.97233  21.49439
C     4.93072 -35.19404  22.59475
H     5.84169 -35.16376  23.17827
C     3.83144 -34.29490  23.06238
H     4.05982 -33.89522  24.05092
C     2.45411 -34.89890  23.11433
B     1.70751 -34.89071  24.48366
O     2.22394 -34.36311  25.63512
C     1.36295 -34.70060  26.72157
C     1.23009 -33.50349  27.66006
C     2.03192 -35.85762  27.47480
C     0.03294 -35.12954  26.00136
C    -0.98239 -33.98500  25.88974
C    -0.65799 -36.35300  26.59972
O     0.46629 -35.43074  24.67557
C     1.88719 -35.46837  22.04931
C     2.46768 -35.59116  20.70004
H     1.78598 -36.08499  20.01246
C     3.19114 -34.45896  20.04562
C     3.81358 -33.36435  20.69854
C     4.11401 -33.27263  22.01165
H     4.67513 -32.40754  22.33992
H     2.41639 -37.66835  15.72643
H     3.91730 -38.45454  15.21983
H     3.91202 -36.74507  15.69278
H     1.86266 -39.17107  17.50955
H     3.05752 -39.69789  18.68873
H     3.19319 -40.21653  16.99328
H     5.65982 -40.19123  16.83449
H     5.24108 -40.29516  18.55536
H     6.82151 -39.69687  18.07282
H     6.23286 -37.83809  15.86031
H     7.17467 -37.45382  17.30872
H     5.84095 -36.40728  16.84103
H     5.81975 -36.51598  21.24582
H     2.19740 -33.30194  28.11367
H     0.51197 -33.72140  28.44602
H     0.91947 -32.61424  27.12129
H     3.01851 -35.53439  27.79903
H     2.15939 -36.71138  26.81395
H     1.45119 -36.14808  28.34512
H    -1.38947 -33.72392  26.86199
H    -1.79352 -34.30682  25.24064
H    -0.51767 -33.11262  25.43729
H    -0.91462 -36.16996  27.63964
H    -0.02633 -37.23259  26.53056
H    -1.56988 -36.54934  26.04136
H     0.90084 -35.89657  22.16984
H     3.08165 -34.40022  18.97389
H     4.16706 -32.57636  20.04358
