60
Generated by autodE on: 2022-07-09. E = -82.276791 Ha
C     3.58045 -37.63179  15.88469
C     3.76150 -38.13778  17.31410
O     3.28551 -37.15606  18.23257
C     2.90031 -39.39135  17.51563
C     5.25408 -38.34683  17.75848
C     5.73977 -39.79396  17.72581
C     6.23654 -37.46923  16.97177
O     5.26118 -37.87152  19.10323
B     4.14200 -37.10554  19.30401
C     3.86458 -36.30830  20.59750
C     4.89298 -36.10766  21.52628
C     4.91812 -35.30665  22.62832
H     5.84647 -35.22101  23.17479
C     3.83541 -34.31938  23.03328
H     4.07821 -33.92267  24.02123
C     2.46192 -34.93846  23.11509
B     1.72589 -34.91952  24.49020
O     2.25008 -34.36522  25.62602
C     1.39466 -34.67415  26.72519
C     1.27113 -33.45420  27.63527
C     2.06393 -35.81479  27.50254
C     0.05980 -35.11546  26.02228
C    -0.94763 -33.96715  25.88208
C    -0.63646 -36.31702  26.65714
O     0.48636 -35.45472  24.70325
C     1.90337 -35.51223  22.04975
C     2.50968 -35.59848  20.69122
H     1.81860 -36.10188  20.01361
C     2.94571 -34.29876  20.06042
C     3.62784 -33.27514  20.69796
C     3.97704 -33.20056  22.01856
H     4.57027 -32.35657  22.34052
H     2.51756 -37.54796  15.67187
H     4.02590 -38.32928  15.18061
H     4.02756 -36.65153  15.75548
H     1.85847 -39.12397  17.35374
H     2.99927 -39.75409  18.53573
H     3.17703 -40.17504  16.81682
H     5.65904 -40.19476  16.71901
H     5.17096 -40.41422  18.41068
H     6.78211 -39.82194  18.03353
H     6.32172 -37.80042  15.94119
H     7.21283 -37.53388  17.44678
H     5.91814 -36.43004  17.00037
H     5.79010 -36.68006  21.31545
H     2.24098 -33.24761  28.08111
H     0.55408 -33.64870  28.42830
H     0.96435 -32.57626  27.07611
H     3.05249 -35.48612  27.81519
H     2.18670 -36.68405  26.86135
H     1.48617 -36.08332  28.38184
H    -1.35318 -33.67930  26.84736
H    -1.76053 -34.29874  25.24020
H    -0.47591 -33.10972  25.40870
H    -0.88782 -36.10282  27.69245
H    -0.01047 -37.20215  26.61071
H    -1.55176 -36.52328  26.10798
H     0.92580 -35.96071  22.16500
H     2.85072 -34.26242  18.98593
H     3.90215 -32.43053  20.07362
