60
Generated by autodE on: 2022-07-09. E = -82.302645 Ha
C     3.43176 -37.82722  15.97830
C     3.69396 -38.20418  17.43480
O     3.23759 -37.15632  18.28766
C     2.87290 -39.45188  17.78520
C     5.21186 -38.34283  17.82058
C     5.72283 -39.77873  17.91729
C     6.13902 -37.54254  16.89668
O     5.27738 -37.72747  19.10619
B     4.14764 -36.97822  19.29545
C     3.91954 -36.04133  20.51447
C     4.94979 -35.81136  21.37978
C     5.00342 -34.89808  22.45503
H     5.95305 -34.79260  22.95920
C     3.84083 -34.19924  23.10458
H     4.07512 -33.84540  24.10545
C     2.48168 -34.80882  23.08511
B     1.71355 -34.87081  24.44259
O     2.22110 -34.39336  25.62034
C     1.35546 -34.78406  26.68529
C     1.21192 -33.63108  27.67609
C     2.02711 -35.97035  27.38886
C     0.03195 -35.18593  25.93797
C    -0.98899 -34.04281  25.87573
C    -0.65504 -36.43998  26.47410
O     0.47408 -35.42214  24.60127
C     1.94547 -35.32040  21.97621
C     2.57348 -35.36667  20.62571
H     1.88441 -35.83272  19.92106
C     3.09540 -34.09064  20.05313
C     3.84258 -33.17174  20.70348
C     4.31109 -33.25700  22.03837
H     4.97917 -32.47505  22.36957
H     2.35801 -37.76974  15.81748
H     3.84686 -38.58103  15.31475
H     3.85947 -36.85892  15.73950
H     1.81924 -39.22318  17.64188
H     3.01989 -39.71638  18.82938
H     3.14186 -40.29097  17.15070
H     5.59858 -40.28727  16.96502
H     5.20150 -40.32867  18.69395
H     6.77985 -39.75954  18.17084
H     6.17617 -37.97854  15.90288
H     7.13917 -37.54833  17.32403
H     5.80762 -36.50904  16.83460
H     5.88437 -36.30585  21.14291
H     2.17456 -33.45003  28.14793
H     0.48631 -33.88430  28.44427
H     0.90630 -32.71844  27.17489
H     3.00871 -35.65521  27.73552
H     2.16634 -36.79103  26.68963
H     1.44231 -36.30557  28.24008
H    -1.40364 -33.83252  26.85707
H    -1.79414 -34.33616  25.20615
H    -0.52624 -33.14655  25.47055
H    -0.92445 -36.30437  27.51808
H    -0.01562 -37.31087  26.37391
H    -1.55913 -36.61858  25.89743
H     0.95879 -35.75708  22.05022
H     2.90209 -33.94177  18.99992
H     4.22785 -32.33608  20.13063
