60
Generated by autodE on: 2022-07-09. E = -82.270364 Ha
C     3.51966 -37.80258  15.97036
C     3.69895 -38.19383  17.43548
O     3.28458 -37.11585  18.27090
C     2.78156 -39.38175  17.75299
C     5.18675 -38.43750  17.87947
C     5.59944 -39.90474  17.97213
C     6.19870 -37.68693  17.00354
O     5.23993 -37.84436  19.17509
B     4.16038 -37.01047  19.32153
C     3.94185 -36.08763  20.54027
C     4.96813 -35.85326  21.43304
C     4.99750 -35.02327  22.53657
H     5.94838 -34.86251  23.02398
C     3.86803 -34.14064  23.03306
H     4.08762 -33.81263  24.05058
C     2.50569 -34.77910  23.03261
B     1.75206 -34.87372  24.39494
O     2.25600 -34.38591  25.57031
C     1.40739 -34.79556  26.64089
C     1.23985 -33.64269  27.62832
C     2.11405 -35.96069  27.34547
C     0.08999 -35.23405  25.90299
C    -0.96375 -34.12044  25.85029
C    -0.55728 -36.50767  26.44258
O     0.52778 -35.45616  24.56266
C     1.97733 -35.27838  21.91519
C     2.63291 -35.25915  20.56996
H     1.96113 -35.72079  19.84333
C     2.94246 -33.84917  20.06967
C     3.66683 -32.92051  20.75979
C     4.08909 -32.98918  22.08014
H     4.77466 -32.23021  22.42913
H     2.45909 -37.67592  15.76739
H     3.91096 -38.58246  15.32255
H     4.01830 -36.86424  15.75034
H     1.75168 -39.07877  17.57804
H     2.87640 -39.65938  18.79972
H     3.01119 -40.23543  17.12249
H     5.48389 -40.38933  17.00641
H     5.01087 -40.43158  18.71585
H     6.64358 -39.95819  18.27006
H     6.24436 -38.10962  16.00440
H     7.17998 -37.76465  17.46609
H     5.93717 -36.63327  16.94713
H     5.87660 -36.41591  21.24367
H     2.20047 -33.43489  28.09334
H     0.52596 -33.91120  28.40220
H     0.90778 -32.74037  27.12531
H     3.08911 -35.61828  27.68445
H     2.27060 -36.78079  26.64943
H     1.54344 -36.30673  28.20185
H    -1.37188 -33.91851  26.83599
H    -1.76868 -34.43836  25.19192
H    -0.53141 -33.21304  25.43664
H    -0.82693 -36.37957  27.48746
H     0.10726 -37.35918  26.34048
H    -1.45770 -36.71350  25.86927
H     1.00278 -35.74380  21.97574
H     2.74261 -33.67994  19.02265
H     3.92863 -32.00875  20.23167
