60
Generated by autodE on: 2022-07-09. E = -82.284723 Ha
C     3.48814 -37.73850  15.88855
C     3.72148 -38.12553  17.34695
O     3.25010 -37.07759  18.19616
C     2.89270 -39.37321  17.67489
C     5.23095 -38.26563  17.76360
C     5.73920 -39.70048  17.87419
C     6.17773 -37.46537  16.86084
O     5.26949 -37.64546  19.05169
B     4.14251 -36.89868  19.21394
C     3.89383 -35.90138  20.41266
C     4.92322 -35.87562  21.41163
C     4.97692 -34.89685  22.41329
H     5.91947 -34.84344  22.95165
C     3.81073 -34.28879  23.12877
H     4.06204 -33.89185  24.10560
C     2.46102 -34.91701  23.14196
B     1.70681 -34.91884  24.50425
O     2.20867 -34.38114  25.65992
C     1.33931 -34.72086  26.73860
C     1.18954 -33.52287  27.67364
C     2.00614 -35.87239  27.50232
C     0.01924 -35.15896  26.00656
C    -0.99762 -34.01766  25.87692
C    -0.67538 -36.37934  26.60655
O     0.46757 -35.46825  24.68832
C     1.89709 -35.48532  22.07172
C     2.43161 -35.60277  20.71440
H     1.75889 -36.09910  20.02689
C     3.29106 -34.56683  20.05670
C     3.82706 -33.40792  20.69383
C     4.34381 -33.47078  21.99749
H     4.93193 -32.60869  22.30000
H     2.41781 -37.68187  15.70643
H     3.91788 -38.48670  15.22824
H     3.91879 -36.76778  15.66530
H     1.84184 -39.14238  17.51589
H     3.02206 -39.64798  18.71866
H     3.17174 -40.20634  17.03700
H     5.63807 -40.20842  16.91897
H     5.19972 -40.25074  18.63794
H     6.78963 -39.68020  18.15310
H     6.23099 -37.89773  15.86635
H     7.16976 -37.47722  17.30623
H     5.85221 -36.43016  16.79611
H     5.84988 -36.35850  21.13665
H     2.14992 -33.31676  28.13977
H     0.46204 -33.74277  28.45041
H     0.88246 -32.63563  27.12960
H     2.98746 -35.54315  27.83643
H     2.14495 -36.72726  26.84527
H     1.41739 -36.16323  28.36714
H    -1.41777 -33.75444  26.84302
H    -1.79919 -34.34428  25.21845
H    -0.52922 -33.14582  25.42731
H    -0.94373 -36.18795  27.64199
H    -0.04102 -37.25795  26.55150
H    -1.58051 -36.58190  26.03947
H     0.91599 -35.92226  22.20238
H     3.07324 -34.42575  19.00046
H     4.21598 -32.63479  20.04518
