60
Generated by autodE on: 2022-07-09. E = -82.289572 Ha
C     3.48837 -37.73622  15.89071
C     3.72155 -38.12379  17.34898
O     3.25085 -37.07576  18.19827
C     2.89151 -39.37079  17.67667
C     5.23091 -38.26480  17.76585
C     5.73923 -39.69972  17.87624
C     6.17702 -37.46202  16.86464
O     5.26933 -37.64679  19.05471
B     4.14290 -36.89855  19.21708
C     3.89314 -35.90456  20.41571
C     4.92826 -35.87717  21.41983
C     4.97314 -34.95260  22.44552
H     5.91258 -34.88597  22.98516
C     3.81304 -34.29078  23.11134
H     4.05769 -33.89260  24.09108
C     2.45823 -34.91768  23.13576
B     1.70970 -34.91599  24.49981
O     2.21286 -34.37868  25.65528
C     1.34434 -34.71948  26.73444
C     1.19498 -33.52307  27.67157
C     2.01178 -35.87210  27.49599
C     0.02336 -35.15628  26.00328
C    -0.99314 -34.01446  25.87528
C    -0.67024 -36.37875  26.59996
O     0.47012 -35.46417  24.68447
C     1.89235 -35.48940  22.06876
C     2.42882 -35.60762  20.71391
H     1.75719 -36.10606  20.02637
C     3.28910 -34.57164  20.05853
C     3.83030 -33.40583  20.69554
C     4.29785 -33.42970  21.99750
H     4.89349 -32.57568  22.30492
H     2.41803 -37.68077  15.70818
H     3.91945 -38.48361  15.23042
H     3.91775 -36.76475  15.66815
H     1.84097 -39.13835  17.51773
H     3.02059 -39.64566  18.72045
H     3.16912 -40.20453  17.03891
H     5.63982 -40.20882  16.92146
H     5.19853 -40.24948  18.63955
H     6.78925 -39.67927  18.15682
H     6.23130 -37.89218  15.86928
H     7.16893 -37.47285  17.31033
H     5.84963 -36.42720  16.80199
H     5.85337 -36.35784  21.13473
H     2.15522 -33.31788  28.13838
H     0.46732 -33.74447  28.44779
H     0.88786 -32.63478  27.12928
H     2.99274 -35.54287  27.83120
H     2.15144 -36.72556  26.83726
H     1.42298 -36.16517  28.36001
H    -1.41447 -33.75255  26.84122
H    -1.79399 -34.33970  25.21525
H    -0.52397 -33.14197  25.42767
H    -0.93927 -36.19190  27.63599
H    -0.03444 -37.25614  26.54146
H    -1.57473 -36.58044  26.03155
H     0.91101 -35.92529  22.20254
H     3.07685 -34.43299  19.00121
H     4.22175 -32.64135  20.03780
