60
Generated by autodE on: 2022-07-09. E = -82.321495 Ha
C     3.29110 -38.09734  16.17976
C     3.59766 -38.27412  17.66545
O     3.21228 -37.09789  18.37398
C     2.74729 -39.42463  18.21907
C     5.12435 -38.41708  18.01459
C     5.58661 -39.84267  18.30874
C     6.04168 -37.80314  16.94926
O     5.26426 -37.62073  19.19042
B     4.16881 -36.80973  19.30824
C     4.02659 -35.68901  20.38196
C     5.05211 -35.43115  21.20818
C     5.12757 -34.41352  22.25293
H     6.07175 -34.42251  22.78682
C     3.92990 -34.00321  23.09081
H     4.16583 -33.75561  24.11860
C     2.60665 -34.64171  22.96651
B     1.81417 -34.86113  24.29606
O     2.30038 -34.52391  25.52987
C     1.40712 -35.02016  26.52637
C     1.25762 -33.98505  27.63878
C     2.04623 -36.28958  27.10367
C     0.09601 -35.31370  25.71124
C    -0.90048 -34.14809  25.74715
C    -0.62741 -36.60200  26.09644
O     0.56760 -35.41510  24.36739
C     2.08374 -35.04625  21.80250
C     2.72350 -34.93185  20.45089
H     2.04774 -35.34436  19.70011
C     3.06286 -33.52106  20.09229
C     3.83070 -32.71138  20.81429
C     4.51067 -33.05725  22.06554
H     5.07867 -32.23191  22.48188
H     2.21439 -38.02282  16.04894
H     3.65526 -38.95235  15.61658
H     3.74036 -37.18909  15.79145
H     1.69768 -39.17364  18.08365
H     2.92796 -39.54649  19.28411
H     2.95820 -40.35486  17.70011
H     5.40874 -40.48134  17.44778
H     5.07562 -40.24974  19.17509
H     6.65238 -39.82920  18.52289
H     6.01695 -38.37928  16.02916
H     7.05874 -37.79416  17.33449
H     5.75036 -36.77508  16.74952
H     5.95000 -36.02242  21.07817
H     2.21256 -33.87322  28.14633
H     0.51303 -34.31291  28.35915
H     0.97411 -33.01705  27.23874
H     3.02664 -36.03355  27.49886
H     2.18358 -37.03015  26.31981
H     1.44043 -36.70596  27.90286
H    -1.33460 -34.03238  26.73573
H    -1.69462 -34.35122  25.03252
H    -0.40940 -33.22525  25.44884
H    -0.91298 -36.57359  27.14456
H    -0.00473 -37.47147  25.91299
H    -1.52442 -36.69646  25.48962
H     1.10729 -35.50961  21.82964
H     2.64491 -33.14848  19.16601
H     4.02173 -31.70835  20.45241
