60
Generated by autodE on: 2022-07-09. E = -82.306233 Ha
C     3.42646 -37.81301  15.96947
C     3.69536 -38.19283  17.42403
O     3.23410 -37.14998  18.28098
C     2.88243 -39.44613  17.77297
C     5.21556 -38.32257  17.80542
C     5.73276 -39.75577  17.90948
C     6.13689 -37.52416  16.87435
O     5.28304 -37.69996  19.08794
B     4.14771 -36.96327  19.28277
C     3.91684 -36.02329  20.50340
C     4.94445 -35.81545  21.37763
C     5.00203 -34.86730  22.43442
H     5.94774 -34.79368  22.95387
C     3.83384 -34.21296  23.11948
H     4.07364 -33.84988  24.11435
C     2.47727 -34.82017  23.09970
B     1.70768 -34.87323  24.45680
O     2.21149 -34.38625  25.63210
C     1.34457 -34.77146  26.69802
C     1.19503 -33.61112  27.67931
C     2.01846 -35.94988  27.41259
C     0.02401 -35.18349  25.95091
C    -1.00116 -34.04476  25.87857
C    -0.65934 -36.43643  26.49434
O     0.46955 -35.42743  24.61684
C     1.93800 -35.33858  21.99536
C     2.55514 -35.40197  20.64365
H     1.86435 -35.87089  19.94396
C     3.14166 -34.17212  20.04896
C     3.86872 -33.23138  20.69228
C     4.35571 -33.32662  22.02913
H     4.99685 -32.51913  22.35609
H     2.35191 -37.75814  15.81320
H     3.84085 -38.56412  15.30249
H     3.85051 -36.84299  15.73111
H     1.82726 -39.22342  17.63131
H     3.03198 -39.71226  18.81634
H     3.15556 -40.28215  17.13626
H     5.60904 -40.27062  16.96057
H     5.21536 -40.30325  18.69049
H     6.79010 -39.73041  18.16103
H     6.16952 -37.96339  15.88183
H     7.13915 -37.52756  17.29665
H     5.80432 -36.49118  16.81051
H     5.88216 -36.29796  21.13158
H     2.15607 -33.42305  28.15164
H     0.46864 -33.86062  28.44798
H     0.88745 -32.70358  27.17011
H     2.99819 -35.62869  27.75899
H     2.16208 -36.77567  26.72030
H     1.43277 -36.28025  28.26510
H    -1.41785 -33.82844  26.85772
H    -1.80435 -34.34629  25.21026
H    -0.54120 -33.14995  25.46705
H    -0.93153 -36.29463  27.53676
H    -0.01633 -37.30552  26.40159
H    -1.56146 -36.62257  25.91698
H     0.95034 -35.77185  22.07488
H     2.95573 -34.03657  18.99173
H     4.27660 -32.41667  20.10625
