60
Generated by autodE on: 2022-07-09. E = -82.281171 Ha
C     3.57901 -37.67965  15.90225
C     3.75049 -38.15518  17.34340
O     3.27613 -37.15011  18.23707
C     2.87990 -39.39832  17.56796
C     5.24032 -38.36347  17.79886
C     5.71274 -39.81547  17.81323
C     6.23409 -37.52050  16.98888
O     5.24843 -37.84696  19.12822
B     4.13226 -37.07172  19.30612
C     3.86204 -36.23223  20.57601
C     4.89479 -36.00336  21.48250
C     4.92136 -35.18648  22.58164
H     5.86357 -35.06227  23.09653
C     3.81475 -34.25929  23.03216
H     4.04925 -33.87052  24.02454
C     2.44484 -34.88093  23.09018
B     1.70891 -34.89120  24.46546
O     2.24107 -34.36927  25.61322
C     1.39602 -34.71491  26.70942
C     1.27944 -33.52581  27.66038
C     2.07465 -35.87943  27.44214
C     0.05541 -35.13530  26.00463
C    -0.95546 -33.98512  25.91299
C    -0.63271 -36.35886  26.60558
O     0.47048 -35.43081  24.67116
C     1.89390 -35.44251  22.01473
C     2.51160 -35.51853  20.66002
H     1.82416 -36.01591  19.97428
C     2.95423 -34.21586  20.04326
C     3.66750 -33.22414  20.68184
C     4.03058 -33.17331  22.00728
H     4.67414 -32.36396  22.32231
H     2.51764 -37.58757  15.68535
H     4.01716 -38.39854  15.21522
H     4.03832 -36.70807  15.75160
H     1.84131 -39.12913  17.38913
H     2.96672 -39.73614  18.59768
H     3.15858 -40.20086  16.89166
H     5.63137 -40.24734  16.81939
H     5.13618 -40.40839  18.51568
H     6.75384 -39.84327  18.12513
H     6.31843 -37.88309  15.96883
H     7.20832 -37.58163  17.46857
H     5.92718 -36.47746  16.98584
H     5.80850 -36.54398  21.26018
H     2.25222 -33.33492  28.10687
H     0.56713 -33.74584  28.45100
H     0.97016 -32.62959  27.13241
H     3.06574 -35.55927  27.75567
H     2.19284 -36.72647  26.77097
H     1.50610 -36.17833  28.31764
H    -1.35126 -33.73069  26.89169
H    -1.77465 -34.29675  25.26914
H    -0.49041 -33.11113  25.46394
H    -0.87929 -36.17790  27.64839
H    -0.00378 -37.23971  26.52837
H    -1.55014 -36.55147  26.05501
H     0.91593 -35.89260  22.11931
H     2.83815 -34.15677  18.97161
H     3.98355 -32.38872  20.06532
