60
Generated by autodE on: 2022-07-09. E = -82.305132 Ha
C     3.59279 -37.63296  15.82896
C     3.78433 -38.10500  17.26831
O     3.28834 -37.11260  18.16686
C     2.94833 -39.37045  17.49808
C     5.28097 -38.27370  17.71673
C     5.79421 -39.71148  17.72339
C     6.24701 -37.39829  16.90838
O     5.27757 -37.76420  19.05034
B     4.14373 -37.02257  19.23458
C     3.85628 -36.18698  20.50850
C     4.86291 -36.12736  21.54010
C     4.87212 -35.38861  22.65493
H     5.73372 -35.44769  23.30558
C     3.82187 -34.37898  23.04134
H     4.06618 -33.96703  24.02226
C     2.44326 -34.99147  23.13489
B     1.71278 -34.93970  24.51211
O     2.25309 -34.38293  25.63845
C     1.39466 -34.65707  26.74428
C     1.30436 -33.42264  27.63844
C     2.03870 -35.80371  27.53412
C     0.04735 -35.07516  26.05132
C    -0.93094 -33.90371  25.89618
C    -0.67751 -36.24810  26.70728
O     0.46192 -35.44493  24.73647
C     1.86609 -35.58651  22.08692
C     2.41953 -35.71968  20.72846
H     1.73230 -36.22970  20.05848
C     3.11833 -34.57739  20.05610
C     3.65886 -33.42399  20.70708
C     3.93719 -33.28735  22.01038
H     4.36710 -32.35570  22.35154
H     2.52835 -37.57373  15.61567
H     4.05072 -38.33710  15.13967
H     4.02151 -36.64753  15.67786
H     1.90152 -39.12817  17.32901
H     3.05325 -39.70790  18.52628
H     3.24183 -40.16409  16.81768
H     5.72178 -40.14140  16.72805
H     5.23716 -40.32365  18.42509
H     6.83666 -39.71072  18.03180
H     6.33880 -37.75418  15.88663
H     7.22393 -37.43257  17.38509
H     5.90972 -36.36473  16.91028
H     5.71713 -36.76110  21.33262
H     2.28092 -33.23360  28.07737
H     0.58632 -33.58907  28.43694
H     1.01641 -32.54519  27.06862
H     3.03718 -35.49654  27.83691
H     2.13527 -36.68481  26.90466
H     1.45909 -36.04494  28.42012
H    -1.32506 -33.59027  26.85824
H    -1.75473 -34.22453  25.26275
H    -0.43939 -33.06626  25.40745
H    -0.91723 -36.01128  27.74041
H    -0.07588 -37.15044  26.67161
H    -1.60118 -36.43787  26.16629
H     0.88545 -36.02127  22.23147
H     3.00396 -34.53481  18.98469
H     3.87276 -32.59155  20.04570
