60
Generated by autodE on: 2022-07-09. E = -82.292939 Ha
C     3.47456 -37.74582  15.92982
C     3.72826 -38.18509  17.37017
O     3.24450 -37.18614  18.26592
C     2.92776 -39.46290  17.65310
C     5.24368 -38.31506  17.76639
C     5.78403 -39.74312  17.78649
C     6.16313 -37.44330  16.90113
O     5.28104 -37.77293  19.08543
B     4.13791 -37.04846  19.29647
C     3.88149 -36.18684  20.55938
C     4.91723 -35.96510  21.44990
C     4.95479 -35.12418  22.54637
H     5.90445 -34.99538  23.04611
C     3.82545 -34.29501  23.08807
H     4.05941 -33.91989  24.08384
C     2.45130 -34.89224  23.10934
B     1.69539 -34.89672  24.47448
O     2.22400 -34.39173  25.63137
C     1.35945 -34.72640  26.71581
C     1.25232 -33.53867  27.66950
C     2.00875 -35.90515  27.45221
C     0.02003 -35.12022  25.99321
C    -0.97203 -33.95399  25.89924
C    -0.69414 -36.33679  26.57778
O     0.44479 -35.41342  24.66214
C     1.90337 -35.43224  22.02117
C     2.52661 -35.51249  20.67162
H     1.83662 -35.99198  19.97693
C     3.05419 -34.24825  20.06420
C     3.79632 -33.29278  20.70643
C     4.18634 -33.28917  22.03808
H     4.87134 -32.51538  22.35487
H     2.40172 -37.70061  15.75938
H     3.91088 -38.46050  15.23722
H     3.88669 -36.75999  15.74048
H     1.87116 -39.24757  17.51064
H     3.07107 -39.77395  18.68488
H     3.21837 -40.26566  16.98219
H     5.67731 -40.19950  16.80608
H     5.26867 -40.34660  18.52651
H     6.83859 -39.71665  18.04946
H     6.22405 -37.82308  15.88566
H     7.15741 -37.44848  17.34200
H     5.80699 -36.41619  16.89063
H     5.84698 -36.46274  21.19874
H     2.22171 -33.36881  28.13154
H     0.52377 -33.74693  28.44834
H     0.96921 -32.63471  27.14014
H     3.00107 -35.60317  27.77953
H     2.12116 -36.75141  26.77917
H     1.42413 -36.19770  28.31914
H    -1.37361 -33.70021  26.87570
H    -1.78956 -34.24879  25.24551
H    -0.48966 -33.08404  25.46100
H    -0.95450 -36.15667  27.61732
H    -0.07671 -37.22621  26.50664
H    -1.60540 -36.51393  26.01203
H     0.91374 -35.85951  22.11032
H     2.91867 -34.16057  18.99638
H     4.18745 -32.48596  20.09620
