60
Generated by autodE on: 2022-07-09. E = -82.295260 Ha
C     3.39375 -37.85538  15.98048
C     3.68246 -38.17633  17.44500
O     3.23459 -37.09864  18.26717
C     2.87130 -39.41104  17.85771
C     5.20747 -38.29367  17.81109
C     5.72287 -39.72195  17.97261
C     6.11797 -37.53862  16.83507
O     5.29220 -37.61751  19.06679
B     4.15841 -36.88165  19.25121
C     3.92852 -35.90826  20.45658
C     4.94321 -35.76887  21.37572
C     5.00552 -34.73853  22.37909
H     5.94368 -34.72959  22.92736
C     3.83016 -34.16915  23.12929
H     4.07794 -33.79134  24.11362
C     2.48321 -34.78299  23.10164
B     1.71216 -34.85256  24.45684
O     2.20716 -34.38631  25.64422
C     1.33601 -34.79795  26.69692
C     1.17921 -33.66210  27.70514
C     2.00806 -35.99240  27.38634
C     0.02012 -35.19500  25.93430
C    -1.00324 -34.05379  25.87607
C    -0.66774 -36.45709  26.45031
O     0.47445 -35.41464  24.59953
C     1.93818 -35.30757  22.00212
C     2.53185 -35.39157  20.64849
H     1.84434 -35.86282  19.95090
C     3.25303 -34.25580  20.02425
C     3.91946 -33.25357  20.66704
C     4.44687 -33.39207  22.00380
H     5.03619 -32.53560  22.32084
H     2.31720 -37.80797  15.83618
H     3.80032 -38.63270  15.33929
H     3.81343 -36.89564  15.69710
H     1.81481 -39.19018  17.72310
H     3.03576 -39.63393  18.90894
H     3.13194 -40.27372  17.25232
H     5.58912 -40.27783  17.04872
H     5.21231 -40.23322  18.78211
H     6.78254 -39.68734  18.21283
H     6.13477 -38.02026  15.86205
H     7.12619 -37.52778  17.24254
H     5.78778 -36.50820  16.73093
H     5.87992 -36.25159  21.13212
H     2.13839 -33.48123  28.18398
H     0.45221 -33.93358  28.46583
H     0.86847 -32.74397  27.21737
H     2.98628 -35.67897  27.74387
H     2.15460 -36.80158  26.67528
H     1.41928 -36.34306  28.22860
H    -1.42766 -33.85606  26.85585
H    -1.80120 -34.34116  25.19530
H    -0.53857 -33.15193  25.48572
H    -0.94058 -36.33691  27.49527
H    -0.02697 -37.32577  26.33952
H    -1.56988 -36.62837  25.86832
H     0.95328 -35.74451  22.09228
H     3.08016 -34.13604  18.96087
H     4.36040 -32.46920  20.06594
