60
Generated by autodE on: 2022-07-09. E = -82.299396 Ha
C     3.45459 -37.74304  15.92273
C     3.71075 -38.14804  17.37274
O     3.24168 -37.11963  18.24437
C     2.89581 -39.40809  17.69108
C     5.22774 -38.28357  17.76534
C     5.74440 -39.71776  17.85468
C     6.15718 -37.46968  16.85646
O     5.28388 -37.68067  19.05839
B     4.14799 -36.94952  19.25563
C     3.90312 -36.03491  20.49541
C     4.93720 -35.89327  21.42968
C     4.97771 -34.99968  22.48697
H     5.92069 -34.90538  23.01020
C     3.82515 -34.27483  23.10648
H     4.06377 -33.88465  24.09281
C     2.46139 -34.88253  23.12579
B     1.70533 -34.89541  24.48985
O     2.20666 -34.36951  25.64921
C     1.33877 -34.72100  26.72617
C     1.18205 -33.52798  27.66641
C     2.01449 -35.87156  27.48322
C     0.02100 -35.16350  25.99138
C    -1.00849 -34.03204  25.87680
C    -0.65814 -36.40094  26.57428
O     0.46946 -35.45079  24.66761
C     1.90320 -35.43052  22.04587
C     2.49233 -35.53404  20.69540
H     1.80753 -36.01816  20.00382
C     3.20829 -34.39725  20.05275
C     3.86994 -33.35531  20.68899
C     4.28588 -33.36948  22.01345
H     4.92417 -32.55444  22.33026
H     2.38148 -37.69071  15.75585
H     3.87967 -38.48087  15.24781
H     3.87634 -36.76712  15.70513
H     1.84148 -39.18349  17.54630
H     3.03831 -39.69584  18.72961
H     3.17395 -40.23086  17.03935
H     5.63517 -40.21956  16.89709
H     5.21642 -40.27675  18.62030
H     6.79784 -39.69475  18.12205
H     6.19652 -37.89038  15.85634
H     7.15607 -37.48264  17.28641
H     5.82697 -36.43497  16.80919
H     5.87512 -36.35267  21.14432
H     2.14176 -33.31712  28.13180
H     0.45732 -33.75555  28.44348
H     0.86818 -32.64066  27.12634
H     2.99212 -35.53565  27.82145
H     2.16256 -36.72067  26.82071
H     1.42709 -36.17401  28.34493
H    -1.42890 -33.78202  26.84625
H    -1.80854 -34.36070  25.21750
H    -0.55080 -33.15094  25.43417
H    -0.93094 -36.22910  27.61196
H    -0.01175 -37.26996  26.50741
H    -1.55955 -36.60792  26.00287
H     0.91563 -35.85896  22.15161
H     3.06714 -34.31680  18.98388
H     4.31152 -32.59916  20.05140
