60
Generated by autodE on: 2022-07-09. E = -82.281343 Ha
C     3.50971 -37.81694  15.97181
C     3.70491 -38.19744  17.43790
O     3.27148 -37.12434  18.27015
C     2.81401 -39.40266  17.76580
C     5.20034 -38.40702  17.87495
C     5.64093 -39.86523  17.98327
C     6.19335 -37.64883  16.98431
O     5.25070 -37.79752  19.16317
B     4.15297 -36.98968  19.31204
C     3.92224 -36.06378  20.52925
C     4.95355 -35.81089  21.40750
C     4.98389 -34.97218  22.50953
H     5.93680 -34.80493  22.99034
C     3.84201 -34.13823  23.03885
H     4.06394 -33.79361  24.04942
C     2.48439 -34.77853  23.04279
B     1.73509 -34.86946  24.40800
O     2.25352 -34.40660  25.58699
C     1.40080 -34.81505  26.65541
C     1.26698 -33.67705  27.66476
C     2.08122 -36.01097  27.33395
C     0.07026 -35.20810  25.91671
C    -0.94972 -34.06310  25.87591
C    -0.61267 -36.46701  26.44671
O     0.49975 -35.42941  24.57342
C     1.95191 -35.29075  21.93324
C     2.59436 -35.29608  20.58405
H     1.91767 -35.76816  19.86944
C     2.96865 -33.93023  20.04733
C     3.70543 -32.99949  20.71730
C     4.12061 -33.04401  22.04472
H     4.81111 -32.28311  22.37922
H     2.44565 -37.71593  15.77282
H     3.91637 -38.59012  15.32537
H     3.98547 -36.86818  15.74553
H     1.77742 -39.12245  17.59325
H     2.91882 -39.67249  18.81367
H     3.05896 -40.25506  17.13925
H     5.52724 -40.36469  17.02485
H     5.06791 -40.39312  18.73850
H     6.68818 -39.89546  18.27391
H     6.24216 -38.08339  15.99042
H     7.17793 -37.70244  17.44330
H     5.91232 -36.60079  16.91563
H     5.87700 -36.33893  21.19455
H     2.23672 -33.49665  28.12214
H     0.55661 -33.94583  28.44186
H     0.94709 -32.75945  27.18210
H     3.06708 -35.70088  27.67279
H     2.21119 -36.82191  26.62166
H     1.50693 -36.35811  28.18760
H    -1.35435 -33.86173  26.86328
H    -1.76159 -34.34861  25.21115
H    -0.48914 -33.16377  25.47483
H    -0.86187 -36.34586  27.49747
H     0.02114 -37.33865  26.32148
H    -1.52838 -36.63334  25.88492
H     0.97771 -35.75509  22.00484
H     2.78528 -33.78367  18.99344
H     4.01372 -32.12002  20.16096
