60
Generated by autodE on: 2022-07-09. E = -82.302772 Ha
C     3.35184 -38.01353  16.11257
C     3.62352 -38.24603  17.59730
O     3.23550 -37.09232  18.33955
C     2.74952 -39.40635  18.09107
C     5.13977 -38.41953  17.97480
C     5.58330 -39.86166  18.21106
C     6.08572 -37.76391  16.96042
O     5.25797 -37.68118  19.18958
B     4.16937 -36.85899  19.31397
C     4.00000 -35.80919  20.44470
C     5.02404 -35.56163  21.29579
C     5.08220 -34.63712  22.37644
H     6.03106 -34.52913  22.87934
C     3.89739 -34.00600  23.06942
H     4.11634 -33.71630  24.09403
C     2.55558 -34.64327  22.98984
B     1.77727 -34.83027  24.33019
O     2.27130 -34.45871  25.55130
C     1.40021 -34.95347  26.56779
C     1.24358 -33.90133  27.66347
C     2.07250 -36.19919  27.15991
C     0.08489 -35.28885  25.77509
C    -0.93730 -34.14551  25.80543
C    -0.60412 -36.58681  26.19030
O     0.54090 -35.40301  24.42701
C     2.03858 -35.08753  21.84110
C     2.69356 -35.02966  20.49730
H     2.01932 -35.46314  19.75660
C     3.07383 -33.64347  20.04991
C     3.82877 -32.78741  20.75188
C     4.35862 -32.98828  22.06483
H     5.02467 -32.22714  22.44249
H     2.27894 -37.92407  15.96089
H     3.72103 -38.85147  15.52731
H     3.81764 -37.09634  15.76695
H     1.70560 -39.13784  17.94543
H     2.90835 -39.56963  19.15418
H     2.95985 -40.31927  17.54202
H     5.41751 -40.45781  17.31772
H     5.05061 -40.30344  19.04684
H     6.64449 -39.86890  18.44729
H     6.08061 -38.29806  16.01495
H     7.09310 -37.77794  17.36997
H     5.80362 -36.72637  16.79995
H     5.93993 -36.11450  21.12006
H     2.20352 -33.75823  28.15371
H     0.51818 -34.23308  28.40138
H     0.93128 -32.94731  27.25086
H     3.05110 -35.91566  27.54056
H     2.21787 -36.94960  26.38665
H     1.48420 -36.61525  27.97223
H    -1.36186 -34.02437  26.79752
H    -1.73521 -34.37801  25.10382
H    -0.47160 -33.21638  25.48675
H    -0.87463 -36.54938  27.24211
H     0.03514 -37.44474  26.00996
H    -1.50754 -36.71010  25.59857
H     1.06225 -35.55105  21.87831
H     2.78435 -33.37720  19.04333
H     4.11567 -31.85109  20.28603
