60
Generated by autodE on: 2022-07-09. E = -82.319602 Ha
C     3.41566 -38.10647  16.17056
C     3.62418 -38.27661  17.67436
O     3.23496 -37.07971  18.34495
C     2.70252 -39.39252  18.18302
C     5.12252 -38.46597  18.11673
C     5.51040 -39.89817  18.47995
C     6.12591 -37.92162  17.09169
O     5.22754 -37.64087  19.27526
B     4.15389 -36.79350  19.31671
C     4.00687 -35.64276  20.35312
C     5.03311 -35.33703  21.16294
C     5.08620 -34.31760  22.19382
H     6.03876 -34.23849  22.70021
C     3.88211 -33.91273  23.02649
H     4.11685 -33.66600  24.05599
C     2.58083 -34.60444  22.91789
B     1.81690 -34.85788  24.25693
O     2.35236 -34.59861  25.48946
C     1.47089 -35.11470  26.48670
C     1.40881 -34.14535  27.66437
C     2.06599 -36.44725  26.95923
C     0.12278 -35.29747  25.70206
C    -0.80048 -34.07817  25.81960
C    -0.66289 -36.55866  26.05169
O     0.55066 -35.36379  24.34099
C     2.06131 -35.02438  21.75716
C     2.69156 -34.87660  20.40281
H     2.02965 -35.31452  19.65327
C     2.89922 -33.42032  20.06837
C     3.63712 -32.57944  20.78660
C     4.35730 -32.89677  22.01251
H     4.93228 -32.07646  22.42098
H     2.35242 -37.99444  15.97292
H     3.78168 -38.98063  15.63885
H     3.92076 -37.21961  15.80183
H     1.67299 -39.11233  17.97193
H     2.80548 -39.50399  19.25939
H     2.91959 -40.33639  17.69192
H     5.36672 -40.55641  17.62739
H     4.92857 -40.26020  19.32129
H     6.55934 -39.91519  18.76523
H     6.12983 -38.52135  16.18654
H     7.11817 -37.94546  17.53649
H     5.89311 -36.88791  16.84913
H     5.94136 -35.91675  21.04929
H     2.38343 -34.11233  28.14515
H     0.67096 -34.48025  28.38841
H     1.16278 -33.14154  27.33359
H     3.07288 -36.26520  27.32796
H     2.13445 -37.14221  26.12592
H     1.47068 -36.88347  27.75573
H    -1.20457 -33.98610  26.82331
H    -1.62102 -34.19753  25.11596
H    -0.26052 -33.17262  25.55422
H    -0.91166 -36.56606  27.10949
H    -0.09887 -37.45218  25.80486
H    -1.58332 -36.57098  25.47334
H     1.10241 -35.52338  21.79249
H     2.41997 -33.06436  19.16747
H     3.74036 -31.55323  20.45328
