60
Generated by autodE on: 2022-07-09. E = -82.258193 Ha
C     3.52249 -37.80525  15.95756
C     3.70217 -38.18659  17.42543
O     3.29506 -37.09929  18.25366
C     2.78019 -39.36858  17.75330
C     5.18868 -38.43543  17.86996
C     5.59676 -39.90369  17.96787
C     6.20297 -37.68906  16.99313
O     5.24350 -37.84037  19.16463
B     4.16922 -36.99796  19.30755
C     3.94476 -36.10223  20.54260
C     4.96102 -35.92767  21.47886
C     4.98931 -35.12952  22.58919
H     5.91792 -35.04202  23.13398
C     3.90134 -34.12676  23.00289
H     4.13294 -33.79134  24.01675
C     2.53303 -34.76680  23.03661
B     1.78494 -34.86140  24.40032
O     2.27973 -34.37727  25.58058
C     1.42149 -34.78961  26.64278
C     1.24434 -33.63930  27.63150
C     2.12054 -35.95752  27.35054
C     0.11039 -35.22698  25.89289
C    -0.94516 -34.11538  25.83344
C    -0.54103 -36.50153  26.42531
O     0.55941 -35.44614  24.55685
C     1.99319 -35.27082  21.92717
C     2.63855 -35.26224  20.57806
H     1.96089 -35.72535  19.85768
C     2.95889 -33.86178  20.05605
C     3.60650 -32.87448  20.76434
C     3.98035 -32.90262  22.08685
H     4.56719 -32.07990  22.46787
H     2.46190 -37.67942  15.75380
H     3.91323 -38.58915  15.31430
H     4.02153 -36.86851  15.73144
H     1.75087 -39.06325  17.57935
H     2.87737 -39.63991  18.80158
H     3.00457 -40.22756  17.12783
H     5.47778 -40.39395  17.00534
H     5.00807 -40.42423  18.71618
H     6.64136 -39.95861  18.26428
H     6.25096 -38.11611  15.99590
H     7.18303 -37.76470  17.45869
H     5.94161 -36.63548  16.93116
H     5.83724 -36.54372  21.30365
H     2.20195 -33.42687  28.10045
H     0.52896 -33.91325  28.40226
H     0.90864 -32.73800  27.12898
H     3.09363 -35.61831  27.69837
H     2.28046 -36.77626  26.65351
H     1.54233 -36.30491  28.20146
H    -1.36154 -33.91671  26.81644
H    -1.74396 -34.43513  25.16828
H    -0.51270 -33.20593  25.42424
H    -0.81107 -36.37725  27.47048
H     0.12108 -37.35457  26.31939
H    -1.44160 -36.70162  25.85020
H     1.02112 -35.73962  21.99850
H     2.83520 -33.73568  18.99124
H     3.81020 -31.95336  20.22636
