60
Generated by autodE on: 2022-07-09. E = -82.300695 Ha
C     3.47981 -37.75225  15.89964
C     3.72053 -38.13025  17.35926
O     3.25178 -37.07627  18.20213
C     2.89437 -39.37677  17.69882
C     5.23189 -38.26605  17.77086
C     5.74320 -39.69959  17.88809
C     6.17271 -37.46856  16.85937
O     5.27480 -37.63853  19.05488
B     4.14844 -36.88836  19.21574
C     3.89880 -35.89024  20.40717
C     4.93404 -35.86941  21.43456
C     4.96092 -35.05390  22.51004
H     5.88304 -35.02534  23.08179
C     3.83073 -34.27744  23.07868
H     4.06662 -33.88103  24.06435
C     2.46448 -34.89744  23.11974
B     1.71932 -34.90013  24.48628
O     2.22470 -34.37753  25.64707
C     1.35570 -34.72692  26.72335
C     1.21117 -33.53998  27.67323
C     2.01980 -35.89004  27.47180
C     0.03251 -35.15189  25.98908
C    -0.98250 -34.00698  25.87675
C    -0.66370 -36.37912  26.57345
O     0.47713 -35.44530  24.66627
C     1.89348 -35.46772  22.05452
C     2.43199 -35.58719  20.70225
H     1.75968 -36.08254  20.01254
C     3.30164 -34.55623  20.04931
C     3.84250 -33.37987  20.70247
C     4.20606 -33.33041  22.00261
H     4.76687 -32.45826  22.32368
H     2.40840 -37.69931  15.72262
H     3.90854 -38.50233  15.24092
H     3.90634 -36.78119  15.66993
H     1.84265 -39.14826  17.54207
H     3.02790 -39.64440  18.74393
H     3.17166 -40.21433  17.06586
H     5.64102 -40.21434  16.93657
H     5.20668 -40.24654  18.65639
H     6.79440 -39.67602  18.16410
H     6.22254 -37.90534  15.86664
H     7.16688 -37.47521  17.30009
H     5.84372 -36.43461  16.79138
H     5.84203 -36.38774  21.15875
H     2.17288 -33.34204  28.14014
H     0.48456 -33.76737  28.44875
H     0.90508 -32.64536  27.14082
H     3.00247 -35.56821  27.80911
H     2.15516 -36.73701  26.80383
H     1.43114 -36.19023  28.33351
H    -1.40043 -33.75554  26.84699
H    -1.78615 -34.32359  25.21589
H    -0.51375 -33.12997  25.43768
H    -0.93030 -36.20260  27.61198
H    -0.03120 -37.25812  26.50455
H    -1.57016 -36.57178  26.00499
H     0.91071 -35.90045  22.19004
H     3.09868 -34.41150  18.99220
H     4.19970 -32.60211  20.04023
