60
Generated by autodE on: 2022-07-09. E = -82.278752 Ha
C     3.63791 -37.56255  15.84704
C     3.78693 -38.09826  17.26928
O     3.30027 -37.13087  18.19757
C     2.91201 -39.34843  17.42871
C     5.26896 -38.32844  17.73848
C     5.74201 -39.77938  17.68971
C     6.27471 -37.44686  16.98654
O     5.25411 -37.87768  19.09173
B     4.13623 -37.10874  19.28693
C     3.83772 -36.34536  20.59427
C     4.84629 -36.20912  21.57689
C     4.86547 -35.42722  22.67806
H     5.75028 -35.42237  23.29715
C     3.82189 -34.36253  23.01479
H     4.07149 -33.94578  23.99315
C     2.44130 -34.96963  23.12084
B     1.71525 -34.92198  24.50082
O     2.24895 -34.34170  25.61841
C     1.40689 -34.62861  26.73345
C     1.28564 -33.38664  27.61368
C     2.09247 -35.74475  27.53195
C     0.06726 -35.09568  26.05589
C    -0.95349 -33.96026  25.90700
C    -0.60926 -36.29124  26.72297
O     0.48011 -35.45718  24.73824
C     1.87273 -35.56344  22.07018
C     2.46244 -35.68595  20.71204
H     1.76844 -36.19707  20.04450
C     2.97566 -34.43959  20.04640
C     3.59146 -33.35359  20.67998
C     3.89645 -33.22975  21.99483
H     4.39134 -32.33070  22.33105
H     2.58002 -37.46034  15.61779
H     4.08624 -38.25271  15.13749
H     4.10028 -36.58616  15.74395
H     1.87589 -39.06970  17.25010
H     2.98666 -39.73156  18.44342
H     3.19731 -40.12085  16.72089
H     5.67532 -40.16272  16.67508
H     5.15555 -40.40558  18.35405
H     6.77846 -39.82237  18.01501
H     6.37575 -37.75995  15.95170
H     7.24119 -37.53047  17.47834
H     5.96666 -36.40501  17.02865
H     5.70927 -36.83959  21.39078
H     2.25972 -33.16167  28.04102
H     0.58055 -33.56554  28.42093
H     0.96519 -32.52568  27.03610
H     3.08173 -35.40119  27.82580
H     2.21536 -36.62877  26.91129
H     1.52599 -35.99560  28.42370
H    -1.34592 -33.65495  26.87237
H    -1.77368 -34.31369  25.28641
H    -0.49827 -33.10904  25.40705
H    -0.85150 -36.05841  27.75641
H     0.02534 -37.17072  26.68766
H    -1.52832 -36.51813  26.18845
H     0.89402 -36.00539  22.20166
H     2.92401 -34.44653  18.96918
H     3.82101 -32.51329  20.03209
