60
Generated by autodE on: 2022-07-09. E = -82.311316 Ha
C     3.34454 -37.96933  16.07262
C     3.63936 -38.24171  17.54602
O     3.22465 -37.12518  18.33016
C     2.80675 -39.44391  18.01007
C     5.16417 -38.38056  17.90249
C     5.65373 -39.81519  18.08794
C     6.07917 -37.66421  16.90091
O     5.27302 -37.67741  19.13931
B     4.16192 -36.89441  19.30102
C     3.97787 -35.87298  20.45994
C     5.00391 -35.64187  21.30991
C     5.07371 -34.69543  22.38374
H     6.01937 -34.63572  22.90293
C     3.89296 -34.09237  23.10662
H     4.12294 -33.78923  24.12357
C     2.54371 -34.70633  23.03374
B     1.75853 -34.84683  24.37641
O     2.24592 -34.43067  25.58545
C     1.36894 -34.88572  26.61524
C     1.20147 -33.78959  27.66504
C     2.04108 -36.10311  27.26296
C     0.05939 -35.25677  25.82843
C    -0.97081 -34.12038  25.81414
C    -0.62380 -36.54395  26.28500
O     0.52191 -35.41575  24.48728
C     2.01782 -35.16177  21.89380
C     2.66067 -35.13940  20.54500
H     1.97537 -35.57395  19.81601
C     3.11718 -33.80083  20.06211
C     3.87859 -32.94085  20.74946
C     4.41745 -33.14009  22.06870
H     5.06053 -32.35480  22.43969
H     2.26796 -37.90528  15.93495
H     3.73028 -38.77751  15.45704
H     3.78081 -37.02904  15.75160
H     1.75363 -39.20568  17.87881
H     2.97865 -39.63338  19.06670
H     3.04275 -40.33266  17.43262
H     5.49425 -40.38783  17.17824
H     5.14526 -40.29865  18.91571
H     6.71763 -39.79772  18.31092
H     6.08453 -38.17107  15.94057
H     7.08966 -37.65579  17.30312
H     5.76139 -36.63256  16.77255
H     5.92260 -36.18256  21.11591
H     2.15537 -33.62771  28.16094
H     0.46633 -34.08948  28.40691
H     0.89622 -32.85319  27.20953
H     3.01485 -35.79942  27.64055
H     2.19745 -36.88330  26.52222
H     1.44723 -36.48890  28.08603
H    -1.40109 -33.96771  26.79939
H    -1.76378 -34.38312  25.11784
H    -0.51046 -33.19946  25.46546
H    -0.91077 -36.46744  27.33030
H     0.02532 -37.40260  26.14819
H    -1.51700 -36.69883  25.68496
H     1.03244 -35.60503  21.94003
H     2.84687 -33.54944  19.04539
H     4.20334 -32.03132  20.25756
