60
Generated by autodE on: 2022-07-09. E = -82.303533 Ha
C     3.63417 -37.61233  15.81601
C     3.79890 -38.09013  17.25680
O     3.30781 -37.09117  18.15065
C     2.93862 -39.34170  17.47284
C     5.28660 -38.28497  17.72435
C     5.77464 -39.73153  17.73689
C     6.27809 -37.42619  16.92915
O     5.27490 -37.77680  19.05829
B     4.15072 -37.01729  19.22990
C     3.85846 -36.18603  20.50433
C     4.84686 -36.16031  21.56005
C     4.85339 -35.42543  22.67374
H     5.67788 -35.52373  23.36468
C     3.82403 -34.36283  23.01451
H     4.07495 -33.94145  23.99023
C     2.44869 -34.98542  23.12767
B     1.72529 -34.93429  24.50857
O     2.26891 -34.37701  25.63297
C     1.41524 -34.65361  26.74199
C     1.32699 -33.42068  27.63842
C     2.06342 -35.80093  27.52743
C     0.06567 -35.07221  26.05388
C    -0.91363 -33.90111  25.90252
C    -0.65648 -36.24568  26.71189
O     0.47589 -35.44142  24.73749
C     1.86938 -35.59271  22.08612
C     2.41385 -35.73172  20.72586
H     1.72759 -36.25201  20.06287
C     3.10433 -34.58623  20.04594
C     3.57921 -33.39750  20.69342
C     3.84900 -33.24138  21.99308
H     4.19464 -32.28170  22.34856
H     2.57371 -37.53460  15.58909
H     4.08894 -38.32288  15.13121
H     4.08148 -36.63402  15.67259
H     1.89846 -39.08162  17.28967
H     3.02353 -39.68236  18.50183
H     3.22813 -40.13923  16.79530
H     5.70885 -40.15963  16.74030
H     5.19729 -40.33439  18.43022
H     6.81250 -39.74890  18.06000
H     6.37611 -37.78274  15.90821
H     7.24829 -37.47841  17.41784
H     5.95936 -36.38676  16.92809
H     5.66784 -36.84507  21.38161
H     2.30473 -33.23174  28.07474
H     0.61145 -33.58889  28.43879
H     1.03674 -32.54247  27.07092
H     3.06260 -35.49331  27.82743
H     2.15866 -36.68080  26.89598
H     1.48703 -36.04436  28.41493
H    -1.30559 -33.58887  26.86589
H    -1.73875 -34.22174  25.27072
H    -0.42373 -33.06288  25.41344
H    -0.89312 -36.00922  27.74583
H    -0.05448 -37.14770  26.67411
H    -1.58172 -36.43580  26.17368
H     0.89396 -36.03577  22.24145
H     2.99492 -34.55706  18.97383
H     3.70858 -32.54832  20.03093
