60
Generated by autodE on: 2022-07-09. E = -82.283300 Ha
C     3.28364 -38.06008  16.14603
C     3.60102 -38.25521  17.62699
O     3.23749 -37.08360  18.35333
C     2.74336 -39.40272  18.17683
C     5.12706 -38.42281  17.96297
C     5.57988 -39.86095  18.20563
C     6.04111 -37.77872  16.91237
O     5.27818 -37.67069  19.16498
B     4.19434 -36.84241  19.30573
C     4.04627 -35.80856  20.44622
C     5.07818 -35.57403  21.30862
C     5.12370 -34.73265  22.42836
H     6.08007 -34.57063  22.90249
C     3.95636 -34.01590  23.06489
H     4.17115 -33.75945  24.10199
C     2.60768 -34.65713  22.98721
B     1.82222 -34.85646  24.31985
O     2.28792 -34.47174  25.54758
C     1.39621 -34.95871  26.54989
C     1.20163 -33.88902  27.62211
C     2.06448 -36.18737  27.17996
C     0.10342 -35.31946  25.73087
C    -0.93478 -34.19022  25.72413
C    -0.57774 -36.62316  26.14073
O     0.59020 -35.44113  24.39524
C     2.08804 -35.07325  21.83016
C     2.75311 -34.97185  20.49350
H     2.08484 -35.38625  19.73604
C     3.07067 -33.53665  20.09531
C     3.81170 -32.68275  20.83241
C     4.29360 -32.87923  22.14167
H     4.99988 -32.16030  22.52946
H     2.20633 -37.97748  16.02455
H     3.63766 -38.91147  15.57084
H     3.73573 -37.15079  15.76337
H     1.69518 -39.13672  18.06021
H     2.93842 -39.54027  19.23749
H     2.93490 -40.32882  17.64306
H     5.38788 -40.47092  17.32704
H     5.07365 -40.29013  19.06414
H     6.64778 -39.86303  18.40962
H     6.01162 -38.32821  15.97619
H     7.06000 -37.78150  17.29295
H     5.74905 -36.74527  16.74305
H     5.99278 -36.12402  21.11219
H     2.14654 -33.72788  28.13519
H     0.45950 -34.21390  28.34630
H     0.89204 -32.94586  27.18373
H     3.02922 -35.88778  27.58308
H     2.23897 -36.94825  26.42336
H     1.45791 -36.59689  27.98206
H    -1.38369 -34.06188  26.70444
H    -1.71297 -34.44347  25.00787
H    -0.47504 -33.25892  25.40307
H    -0.87952 -36.58019  27.18365
H     0.07927 -37.47288  25.98657
H    -1.46133 -36.76542  25.52360
H     1.11260 -35.53989  21.85512
H     2.80613 -33.26319  19.08520
H     4.07826 -31.72888  20.38833
