60
Generated by autodE on: 2022-07-09. E = -82.307803 Ha
C     3.46954 -37.76599  15.90780
C     3.71645 -38.13107  17.36972
O     3.25535 -37.06700  18.20409
C     2.88730 -39.37131  17.72494
C     5.22934 -38.26859  17.77581
C     5.73515 -39.70286  17.90880
C     6.16898 -37.48681  16.84967
O     5.28127 -37.62633  19.05215
B     4.15755 -36.87170  19.21168
C     3.91203 -35.86970  20.39895
C     4.93885 -35.86444  21.44347
C     4.95854 -35.09464  22.54109
H     5.86247 -35.11244  23.14166
C     3.85070 -34.25887  23.06529
H     4.08298 -33.86515  24.05408
C     2.47923 -34.87626  23.11097
B     1.73285 -34.88711  24.47711
O     2.23427 -34.37441  25.64372
C     1.36293 -34.73457  26.71471
C     1.21303 -33.55613  27.67430
C     2.02724 -35.90265  27.45521
C     0.04241 -35.15612  25.97347
C    -0.97598 -34.01335  25.86977
C    -0.65164 -36.39122  26.54391
O     0.49084 -35.43566  24.64909
C     1.90588 -35.44350  22.04462
C     2.44333 -35.56280  20.69297
H     1.77022 -36.05540  20.00197
C     3.31963 -34.53412  20.04245
C     3.84561 -33.35019  20.70721
C     4.16421 -33.27046  22.00766
H     4.67855 -32.37339  22.33751
H     2.39733 -37.70971  15.73658
H     3.89093 -38.52407  15.25356
H     3.89900 -36.79900  15.66670
H     1.83580 -39.14130  17.56890
H     3.02310 -39.62860  18.77235
H     3.16000 -40.21637  17.09997
H     5.62720 -40.22938  16.96440
H     5.19956 -40.23789  18.68613
H     6.78755 -39.68020  18.18040
H     6.21076 -37.93566  15.86194
H     7.16570 -37.49311  17.28456
H     5.84465 -36.45215  16.77111
H     5.82922 -36.42135  21.18447
H     2.17283 -33.35991  28.14583
H     0.48469 -33.79199  28.44568
H     0.90620 -32.65764  27.14886
H     3.00805 -35.58166  27.79865
H     2.16667 -36.74348  26.78035
H     1.43638 -36.21171  28.31228
H    -1.39693 -33.77228  26.84133
H    -1.77721 -34.32635  25.20424
H    -0.50923 -33.13071  25.43995
H    -0.92240 -36.22595  27.58321
H    -0.01605 -37.26745  26.46841
H    -1.55554 -36.58129  25.97049
H     0.92245 -35.87494  22.18089
H     3.12142 -34.38583  18.98558
H     4.16241 -32.55296  20.04712
