60
Generated by autodE on: 2022-07-09. E = -82.292340 Ha
C     3.48706 -37.73552  15.89540
C     3.72150 -38.13360  17.35074
O     3.24831 -37.09455  18.20925
C     2.89542 -39.38592  17.66836
C     5.23165 -38.27455  17.76483
C     5.74189 -39.70983  17.86142
C     6.17684 -37.46508  16.86853
O     5.27060 -37.66619  19.05785
B     4.14156 -36.92297  19.22867
C     3.89411 -35.95158  20.44095
C     4.92426 -35.87774  21.41200
C     4.97502 -34.89009  22.41265
H     5.91898 -34.82958  22.94626
C     3.80827 -34.27916  23.12752
H     4.06008 -33.88009  24.10361
C     2.45951 -34.90602  23.14242
B     1.70434 -34.91141  24.50577
O     2.20658 -34.37759  25.66218
C     1.33781 -34.72114  26.74047
C     1.18831 -33.52605  27.67910
C     2.00601 -35.87484  27.49957
C     0.01762 -35.15747  26.00759
C    -0.99983 -34.01633  25.88170
C    -0.67595 -36.38024  26.60378
O     0.46592 -35.46192  24.68791
C     1.89827 -35.47265  22.07133
C     2.44741 -35.58911  20.71368
H     1.76888 -36.08588  20.02982
C     3.25555 -34.52097  20.05185
C     3.83032 -33.40001  20.68183
C     4.34369 -33.46519  21.99298
H     4.93590 -32.60584  22.29354
H     2.41664 -37.67977  15.71350
H     3.91838 -38.47760  15.22913
H     3.91591 -36.76228  15.67975
H     1.84382 -39.15530  17.51381
H     3.02732 -39.67056  18.70917
H     3.17440 -40.21247  17.02193
H     5.63916 -40.20895  16.90173
H     5.20469 -40.26776  18.62123
H     6.79287 -39.69100  18.13833
H     6.23015 -37.88792  15.86994
H     7.16905 -37.48023  17.31347
H     5.85026 -36.42962  16.81399
H     5.85998 -36.34161  21.13255
H     2.14910 -33.32079  28.14473
H     0.46176 -33.74856  28.45601
H     0.88017 -32.63744  27.13792
H     2.98772 -35.54633  27.83320
H     2.14417 -36.72758  26.83961
H     1.41863 -36.16861  28.36430
H    -1.41969 -33.75608  26.84871
H    -1.80154 -34.34141  25.22264
H    -0.53206 -33.14296  25.43439
H    -0.94309 -36.19261  27.64021
H    -0.04140 -37.25847  26.54490
H    -1.58171 -36.58109  26.03712
H     0.91716 -35.91059  22.19637
H     3.05735 -34.40684  18.99128
H     4.23856 -32.63356  20.03633
