60
Generated by autodE on: 2022-07-09. E = -82.313223 Ha
C     3.59408 -37.63364  15.82519
C     3.78661 -38.10148  17.26584
O     3.29703 -37.10116  18.15995
C     2.94661 -39.36322  17.50082
C     5.28292 -38.27363  17.71389
C     5.79318 -39.71238  17.72489
C     6.24933 -37.40078  16.90339
O     5.28160 -37.75817  19.04596
B     4.15629 -37.00374  19.22288
C     3.88113 -36.12952  20.48004
C     4.85609 -36.16415  21.56180
C     4.86633 -35.44535  22.68209
H     5.66508 -35.59203  23.39430
C     3.85644 -34.37106  23.02826
H     4.10944 -33.95756  24.00681
C     2.47325 -34.98046  23.13364
B     1.73960 -34.92781  24.50909
O     2.27264 -34.37409  25.64052
C     1.40728 -34.65135  26.74036
C     1.30852 -33.41966  27.63749
C     2.04668 -35.79942  27.53203
C     0.06447 -35.06970  26.03881
C    -0.91819 -33.90167  25.88456
C    -0.66122 -36.24619  26.68786
O     0.48682 -35.43368  24.72508
C     1.88838 -35.57683  22.08687
C     2.42365 -35.72186  20.72903
H     1.73625 -36.23006  20.06003
C     3.19027 -34.61627  20.05687
C     3.62222 -33.40327  20.71541
C     3.88073 -33.24867  22.01343
H     4.18415 -32.27860  22.37964
H     2.52927 -37.57104  15.61443
H     4.04764 -38.34127  15.13657
H     4.02574 -36.65009  15.67046
H     1.90028 -39.11918  17.33143
H     3.05145 -39.69880  18.52956
H     3.23754 -40.15958  16.82237
H     5.71954 -40.14578  16.73108
H     5.23523 -40.32142  18.42863
H     6.83589 -39.71298  18.03257
H     6.34033 -37.75721  15.88179
H     7.22634 -37.43474  17.37984
H     5.91217 -36.36715  16.90519
H     5.64845 -36.88312  21.39172
H     2.28185 -33.22823  28.08247
H     0.58689 -33.59146  28.43169
H     1.01981 -32.54150  27.06913
H     3.04421 -35.49411  27.83965
H     2.14453 -36.68029  26.90245
H     1.46270 -36.04052  28.41522
H    -1.31487 -33.59265  26.84704
H    -1.74005 -34.22512  25.24992
H    -0.43057 -33.06052  25.39836
H    -0.90614 -36.01221  27.72045
H    -0.05839 -37.14767  26.65268
H    -1.58218 -36.43563  26.14216
H     0.90587 -36.00487  22.24077
H     3.05417 -34.55555  18.98805
H     3.71837 -32.54680  20.05728
