60
Generated by autodE on: 2022-07-09. E = -82.314013 Ha
C     3.60675 -37.65164  15.81981
C     3.78693 -38.09872  17.26859
O     3.29967 -37.08290  18.14604
C     2.93430 -39.34915  17.51805
C     5.27987 -38.27687  17.72646
C     5.77325 -39.72092  17.77043
C     6.26106 -37.43520  16.90094
O     5.27892 -37.73455  19.04766
B     4.15396 -36.97746  19.21175
C     3.87271 -36.09817  20.46416
C     4.87403 -36.07663  21.51805
C     4.87674 -35.35513  22.63937
H     5.72259 -35.44599  23.30755
C     3.82528 -34.35761  23.03783
H     4.06987 -33.94948  24.02014
C     2.45264 -34.98573  23.13159
B     1.72229 -34.94291  24.50860
O     2.25751 -34.38521  25.63736
C     1.39905 -34.66681  26.74113
C     1.29894 -33.43526  27.63837
C     2.04836 -35.81121  27.52998
C     0.05524 -35.09143  26.04524
C    -0.92989 -33.92542  25.89123
C    -0.66417 -36.26954  26.69794
O     0.47388 -35.45613  24.73045
C     1.87690 -35.58269  22.08210
C     2.41518 -35.70905  20.72224
H     1.73320 -36.22200  20.05118
C     3.16031 -34.59125  20.05226
C     3.63877 -33.40158  20.71454
C     3.90986 -33.26179  22.01411
H     4.27929 -32.30763  22.36499
H     2.54389 -37.57986  15.60244
H     4.05511 -38.37639  15.14576
H     4.05130 -36.67623  15.65066
H     1.89165 -39.09833  17.33635
H     3.02788 -39.66747  18.55337
H     3.22322 -40.15957  16.85574
H     5.69941 -40.17352  16.78530
H     5.20482 -40.30855  18.48385
H     6.81425 -39.72690  18.08359
H     6.34965 -37.81614  15.88796
H     7.23628 -37.47340  17.38083
H     5.93979 -36.39686  16.87796
H     5.71699 -36.72577  21.31446
H     2.27206 -33.24322  28.08365
H     0.57702 -33.60720  28.43225
H     1.01040 -32.55735  27.06953
H     3.04330 -35.49776  27.83805
H     2.15394 -36.68957  26.89805
H     1.46676 -36.05950  28.41278
H    -1.32909 -33.61830  26.85329
H    -1.74965 -34.24913  25.25402
H    -0.44235 -33.08275  25.40740
H    -0.91177 -36.03330  27.72935
H    -0.05572 -37.16740  26.66689
H    -1.58322 -36.46664  26.15170
H     0.90030 -36.02538  22.23210
H     3.01220 -34.51910  18.98548
H     3.80202 -32.55531  20.05698
