60
Generated by autodE on: 2022-07-09. E = -82.314290 Ha
C     3.35639 -37.92797  16.05030
C     3.65149 -38.22684  17.51859
O     3.22315 -37.12939  18.32217
C     2.82836 -39.44489  17.95691
C     5.17794 -38.35685  17.87532
C     5.67606 -39.78904  18.05770
C     6.08998 -37.63270  16.87691
O     5.28275 -37.65797  19.11519
B     4.16075 -36.89618  19.29072
C     3.96361 -35.88536  20.46081
C     4.98920 -35.65909  21.31204
C     5.06005 -34.67864  22.36796
H     6.00325 -34.65009  22.89821
C     3.87703 -34.11776  23.12019
H     4.11538 -33.79523  24.12789
C     2.53296 -34.73648  23.05861
B     1.75098 -34.85990  24.40490
O     2.23821 -34.42828  25.60806
C     1.35761 -34.86394  26.64312
C     1.19294 -33.75039  27.67459
C     2.02295 -36.07363  27.31169
C     0.04829 -35.24224  25.85943
C    -0.97586 -34.10095  25.82237
C    -0.64210 -36.51783  26.33703
O     0.51334 -35.42588  24.52265
C     2.00101 -35.20962  21.92906
C     2.62715 -35.21080  20.57494
H     1.93758 -35.65646  19.85789
C     3.14333 -33.91909  20.05268
C     3.89227 -33.03622  20.72468
C     4.44319 -33.22701  22.04992
H     5.05328 -32.40737  22.40800
H     2.27947 -37.86875  15.91304
H     3.74811 -38.72101  15.41915
H     3.78618 -36.97840  15.74848
H     1.77355 -39.21279  17.82737
H     2.99843 -39.65388  19.01005
H     3.07323 -40.32000  17.36266
H     5.52723 -40.35895  17.14459
H     5.16573 -40.27980  18.87996
H     6.73819 -39.76461  18.28839
H     6.08935 -38.12974  15.91151
H     7.10254 -37.63130  17.27395
H     5.77468 -36.59895  16.76054
H     5.91494 -36.18098  21.10447
H     2.14867 -33.57988  28.16403
H     0.46060 -34.03804  28.42405
H     0.88570 -32.82196  27.20449
H     2.99790 -35.76870  27.68523
H     2.17583 -36.86713  26.58461
H     1.42632 -36.44238  28.14053
H    -1.40630 -33.92682  26.80391
H    -1.76945 -34.37274  25.13025
H    -0.50977 -33.18977  25.45614
H    -0.92276 -36.42507  27.38269
H     0.00028 -37.38288  26.20841
H    -1.53978 -36.67464  25.74418
H     1.01756 -35.65524  21.98834
H     2.89145 -33.69498  19.02387
H     4.24332 -32.15347  20.20445
