60
Generated by autodE on: 2022-07-09. E = -82.304068 Ha
C     3.46506 -37.76161  15.91457
C     3.71440 -38.13595  17.37386
O     3.24991 -37.08136  18.21756
C     2.88928 -39.38155  17.72004
C     5.22869 -38.27197  17.77639
C     5.73635 -39.70617  17.90495
C     6.16634 -37.48747  16.85047
O     5.28280 -37.63498  19.05451
B     4.15369 -36.89030  19.22545
C     3.90538 -35.92088  20.43204
C     4.93932 -35.86009  21.43850
C     4.96584 -35.03260  22.51055
H     5.89220 -34.98270  23.07201
C     3.83203 -34.25449  23.07612
H     4.06519 -33.85786  24.06255
C     2.46683 -34.87321  23.11432
B     1.71970 -34.88778  24.48133
O     2.22375 -34.37705  25.64701
C     1.35432 -34.73832  26.71938
C     1.20617 -33.56016  27.67944
C     2.02041 -35.90653  27.45789
C     0.03278 -35.15935  25.97956
C    -0.98495 -34.01603  25.87702
C    -0.66024 -36.39512  26.54931
O     0.47933 -35.43751  24.65398
C     1.89743 -35.43836  22.04705
C     2.45120 -35.55388  20.69502
H     1.77589 -36.04741  20.00496
C     3.27549 -34.49000  20.04233
C     3.85303 -33.34977  20.69385
C     4.21767 -33.30839  21.99907
H     4.80074 -32.45287  22.32087
H     2.39262 -37.70635  15.74451
H     3.88723 -38.51515  15.25550
H     3.89265 -36.79253  15.67856
H     1.83716 -39.15374  17.56480
H     3.02500 -39.64487  18.76595
H     3.16510 -40.22168  17.08988
H     5.62898 -40.23046  16.95928
H     5.20162 -40.24355  18.68127
H     6.78864 -39.68253  18.17687
H     6.20589 -37.93366  15.86142
H     7.16395 -37.49546  17.28329
H     5.84242 -36.45245  16.77547
H     5.85622 -36.36285  21.16068
H     2.16666 -33.36473  28.14989
H     0.47848 -33.79573  28.45145
H     0.89956 -32.66136  27.15442
H     3.00140 -35.58511  27.80041
H     2.15978 -36.74673  26.78224
H     1.43072 -36.21659  28.31538
H    -1.40535 -33.77498  26.84876
H    -1.78641 -34.32816  25.21139
H    -0.51752 -33.13368  25.44726
H    -0.93048 -36.23086  27.58886
H    -0.02404 -37.27083  26.47268
H    -1.56419 -36.58525  25.97602
H     0.91480 -35.87284  22.17556
H     3.10110 -34.37360  18.97994
H     4.23562 -32.57970  20.03605
