60
Generated by autodE on: 2022-07-09. E = -82.295795 Ha
C     3.44292 -37.91018  16.01731
C     3.68824 -38.22508  17.49139
O     3.24933 -37.13045  18.29275
C     2.83856 -39.43788  17.89289
C     5.20040 -38.37842  17.89350
C     5.68039 -39.81923  18.05527
C     6.14938 -37.63822  16.94196
O     5.27090 -37.71058  19.15185
B     4.15506 -36.93024  19.30121
C     3.93132 -35.96159  20.49169
C     4.96194 -35.69992  21.35060
C     5.00143 -34.81281  22.43733
H     5.95383 -34.66223  22.92355
C     3.83372 -34.09286  23.05656
H     4.05908 -33.74953  24.06446
C     2.48487 -34.73309  23.03780
B     1.72748 -34.84524  24.39760
O     2.25745 -34.44813  25.59557
C     1.39261 -34.88433  26.64379
C     1.29830 -33.80079  27.71512
C     2.03149 -36.13954  27.25184
C     0.04946 -35.19089  25.88848
C    -0.92140 -34.00332  25.89686
C    -0.68605 -36.44218  26.36225
O     0.47437 -35.37125  24.53748
C     1.95569 -35.23852  21.92268
C     2.59149 -35.25037  20.57253
H     1.91207 -35.72165  19.86092
C     3.03020 -33.92273  20.02699
C     3.77211 -33.00609  20.68915
C     4.22754 -33.08293  22.02095
H     4.90590 -32.31234  22.35668
H     2.37154 -37.84194  15.84529
H     3.84983 -38.70020  15.39187
H     3.88909 -36.96101  15.73869
H     1.79073 -39.19252  17.73492
H     2.97582 -39.65885  18.94847
H     3.09110 -40.31003  17.29738
H     5.55306 -40.36534  17.12443
H     5.14171 -40.32477  18.85007
H     6.73554 -39.81078  18.31711
H     6.18287 -38.11722  15.96800
H     7.14685 -37.64653  17.37553
H     5.83998 -36.60173  16.83343
H     5.89736 -36.20021  21.12672
H     2.27066 -33.68677  28.18798
H     0.57090 -34.08354  28.47128
H     1.01987 -32.84494  27.28345
H     3.02964 -35.88486  27.60087
H     2.12845 -36.91407  26.49509
H     1.44824 -36.51174  28.08869
H    -1.32500 -33.83284  26.89046
H    -1.73931 -34.22186  25.21428
H    -0.42015 -33.10602  25.54277
H    -0.93658 -36.35486  27.41606
H    -0.08682 -37.33278  26.20377
H    -1.60404 -36.54804  25.78961
H     0.97973 -35.69939  21.99261
H     2.82664 -33.76124  18.97826
H     4.11591 -32.14032  20.13372
