60
Generated by autodE on: 2022-07-09. E = -82.294564 Ha
C     3.53918 -37.74687  15.85803
C     3.73862 -38.10385  17.32886
O     3.27605 -37.02797  18.14775
C     2.87613 -39.32451  17.67203
C     5.23708 -38.26846  17.77456
C     5.71192 -39.71186  17.92051
C     6.21608 -37.50502  16.87430
O     5.26534 -37.62801  19.05224
B     4.14951 -36.85776  19.18447
C     3.88719 -35.87228  20.38542
C     4.93437 -35.83381  21.38862
C     4.95763 -34.98122  22.45247
H     5.89401 -34.90823  22.99618
C     3.79866 -34.30206  23.09089
H     4.03868 -33.91417  24.07751
C     2.45139 -34.95325  23.12850
B     1.71233 -34.95877  24.49878
O     2.22944 -34.42269  25.64815
C     1.36267 -34.74318  26.73469
C     1.23832 -33.53627  27.66190
C     2.01606 -35.90020  27.50140
C     0.03175 -35.16514  26.01335
C    -0.96276 -34.00508  25.87482
C    -0.68339 -36.36502  26.63016
O     0.46884 -35.49529  24.69604
C     1.88669 -35.52492  22.06115
C     2.41749 -35.61448  20.70204
H     1.75118 -36.11664  20.01166
C     3.24903 -34.54959  20.05394
C     3.77036 -33.37498  20.70936
C     4.19752 -33.36983  22.00596
H     4.76648 -32.50374  22.32809
H     2.47372 -37.67676  15.65358
H     3.96878 -38.51756  15.22401
H     3.99071 -36.78907  15.62073
H     1.83387 -39.07373  17.48838
H     2.98099 -39.57491  18.72469
H     3.14651 -40.18015  17.06082
H     5.61375 -40.23723  16.97444
H     5.14904 -40.23443  18.68692
H     6.75832 -39.70925  18.21502
H     6.28262 -37.96132  15.89132
H     7.19832 -37.52287  17.34070
H     5.90949 -36.46642  16.77877
H     5.86371 -36.29557  21.08535
H     2.20355 -33.34629  28.12493
H     0.50782 -33.73527  28.44139
H     0.94867 -32.64706  27.11153
H     3.00437 -35.58442  27.82790
H     2.13732 -36.76134  26.84901
H     1.42790 -36.17639  28.37145
H    -1.37666 -33.72404  26.83863
H    -1.77143 -34.32134  25.21996
H    -0.47710 -33.14714  25.41668
H    -0.94397 -36.15632  27.66430
H    -0.06614 -37.25620  26.58373
H    -1.59476 -36.55725  26.06947
H     0.91411 -35.97994  22.19620
H     3.02704 -34.39796  19.00142
H     4.12922 -32.59171  20.05462
