60
Generated by autodE on: 2022-07-09. E = -82.289512 Ha
C     3.51434 -37.72287  15.92003
C     3.74105 -38.17372  17.36131
O     3.25320 -37.17592  18.25631
C     2.92432 -39.44546  17.62410
C     5.24862 -38.32047  17.77987
C     5.77814 -39.75245  17.79188
C     6.18712 -37.44469  16.93951
O     5.26920 -37.79376  19.10543
B     4.13077 -37.05811  19.30359
C     3.86105 -36.21087  20.57083
C     4.89522 -35.98730  21.47741
C     4.92479 -35.16030  22.57086
H     5.86826 -35.03754  23.08401
C     3.81018 -34.27048  23.05072
H     4.04304 -33.87368  24.03940
C     2.43768 -34.87948  23.09975
B     1.69626 -34.88351  24.47231
O     2.23286 -34.38203  25.62690
C     1.37751 -34.72502  26.71626
C     1.28049 -33.54614  27.68173
C     2.03072 -35.91184  27.43619
C     0.03200 -35.11116  26.00176
C    -0.95385 -33.93915  25.91533
C    -0.68402 -36.32532  26.58888
O     0.44764 -35.40332  24.66777
C     1.88460 -35.44258  22.02618
C     2.49930 -35.54095  20.67507
H     1.81027 -36.03640  19.99078
C     3.02342 -34.28741  20.03964
C     3.74758 -33.29767  20.67003
C     4.10375 -33.24102  21.99819
H     4.76454 -32.44264  22.30599
H     2.44508 -37.67815  15.72852
H     3.96570 -38.43068  15.23011
H     3.92838 -36.73471  15.74775
H     1.87147 -39.21632  17.47540
H     3.05525 -39.76940  18.65362
H     3.21157 -40.24395  16.94664
H     5.69003 -40.19416  16.80299
H     5.24245 -40.36264  18.51162
H     6.82667 -39.73704  18.07875
H     6.25959 -37.81069  15.91979
H     7.17498 -37.46370  17.39417
H     5.83876 -36.41478  16.93826
H     5.81724 -36.50515  21.23793
H     2.25661 -33.37632  28.12943
H     0.56551 -33.76499  28.47029
H     0.98478 -32.63859  27.16559
H     3.02742 -35.61594  27.75561
H     2.13288 -36.75302  26.75512
H     1.45423 -36.20962  28.30685
H    -1.34986 -33.68546  26.89411
H    -1.77557 -34.22754  25.26392
H    -0.46782 -33.07119  25.47692
H    -0.92401 -36.15176  27.63443
H    -0.07608 -37.21965  26.49910
H    -1.60695 -36.48935  26.03830
H     0.90174 -35.88157  22.13165
H     2.91461 -34.23945  18.96666
H     4.11905 -32.49788  20.03822
