60
Generated by autodE on: 2022-07-09. E = -82.300004 Ha
C     3.46571 -37.74104  15.91675
C     3.71889 -38.14919  17.36635
O     3.24354 -37.12505  18.23973
C     2.90862 -39.41367  17.67882
C     5.23469 -38.27977  17.76341
C     5.76098 -39.71116  17.83702
C     6.16091 -37.44784  16.86752
O     5.28125 -37.69093  19.06340
B     4.14353 -36.96132  19.25863
C     3.89051 -36.05697  20.50149
C     4.92531 -35.91705  21.45155
C     4.95890 -35.06392  22.52146
H     5.89686 -34.97351  23.05410
C     3.82215 -34.27732  23.08649
H     4.05671 -33.88035  24.07254
C     2.45352 -34.88295  23.12076
B     1.70366 -34.88870  24.48805
O     2.21229 -34.36631  25.64577
C     1.34771 -34.71667  26.72573
C     1.20275 -33.52735  27.67236
C     2.01940 -35.87519  27.47421
C     0.02384 -35.14766  25.99555
C    -0.99607 -34.00718  25.88499
C    -0.66353 -36.37962  26.58012
O     0.46543 -35.43754  24.67014
C     1.89012 -35.44122  22.04893
C     2.47545 -35.55608  20.69898
H     1.79140 -36.04505  20.01016
C     3.19547 -34.42404  20.04793
C     3.85420 -33.36612  20.68491
C     4.22840 -33.33677  22.00440
H     4.86098 -32.51684  22.32005
H     2.39296 -37.69811  15.74501
H     3.90093 -38.47170  15.24045
H     3.87930 -36.76022  15.70559
H     1.85344 -39.19256  17.53465
H     3.05183 -39.70575  18.71608
H     3.19037 -40.23215  17.02326
H     5.65823 -40.20101  16.87253
H     5.23432 -40.28384  18.59338
H     6.81337 -39.68453  18.10823
H     6.20968 -37.85747  15.86319
H     7.15758 -37.45504  17.30267
H     5.82007 -36.41618  16.82940
H     5.85544 -36.39626  21.17263
H     2.16577 -33.32455  28.13446
H     0.48017 -33.75476  28.45152
H     0.89153 -32.63549  27.13829
H     3.00140 -35.54794  27.80828
H     2.15738 -36.72270  26.80747
H     1.43455 -36.17670  28.33798
H    -1.41259 -33.75539  26.85564
H    -1.79989 -34.32777  25.22628
H    -0.53143 -33.12933  25.44308
H    -0.92847 -36.20684  27.61966
H    -0.02564 -37.25451  26.50796
H    -1.57015 -36.57716  26.01364
H     0.90311 -35.86907  22.16221
H     3.06665 -34.35569  18.97766
H     4.28024 -32.60987  20.03641
