60
Generated by autodE on: 2022-07-09. E = -82.276591 Ha
C     3.50025 -37.75435  15.87023
C     3.72488 -38.11477  17.33644
O     3.26221 -37.04666  18.16602
C     2.88094 -39.34570  17.68840
C     5.23091 -38.26413  17.76091
C     5.72526 -39.70217  17.89209
C     6.18834 -37.48317  16.85261
O     5.26831 -37.62982  19.04231
B     4.14674 -36.87258  19.19120
C     3.89584 -35.88074  20.39523
C     4.91960 -35.86092  21.39124
C     4.97839 -34.84299  22.37996
H     5.92420 -34.81421  22.91872
C     3.80836 -34.29975  23.14904
H     4.06557 -33.91347  24.12680
C     2.46617 -34.93507  23.14665
B     1.70858 -34.94323  24.50786
O     2.20774 -34.39546  25.65974
C     1.33783 -34.72738  26.74019
C     1.18725 -33.52063  27.66373
C     2.00584 -35.87169  27.51356
C     0.01946 -35.17301  26.00997
C    -0.99514 -34.03143  25.86480
C    -0.67753 -36.38593  26.62233
O     0.47122 -35.49629  24.69572
C     1.90440 -35.49482  22.07027
C     2.43308 -35.59434  20.70769
H     1.75918 -36.08563  20.01799
C     3.28245 -34.54504  20.06018
C     3.81198 -33.39772  20.71103
C     4.37931 -33.50994  22.01125
H     4.94841 -32.63295  22.31552
H     2.43123 -37.68966  15.68332
H     3.92395 -38.52066  15.22694
H     3.94248 -36.79329  15.62859
H     1.83347 -39.10649  17.51957
H     3.00307 -39.59666  18.73911
H     3.15275 -40.19701  17.07187
H     5.62270 -40.22241  16.94367
H     5.17784 -40.23671  18.66139
H     6.77489 -39.68825  18.17449
H     6.24638 -37.93193  15.86563
H     7.17717 -37.49261  17.30512
H     5.86839 -36.44759  16.76861
H     5.84459 -36.35191  21.12733
H     2.14755 -33.31080  28.12840
H     0.45875 -33.73158  28.44199
H     0.88200 -32.63867  27.11010
H     2.98691 -35.53819  27.84423
H     2.14557 -36.73162  26.86328
H     1.41802 -36.15633  28.38105
H    -1.41748 -33.75568  26.82648
H    -1.79571 -34.36347  25.20781
H    -0.52303 -33.16610  25.40650
H    -0.94801 -36.18265  27.65504
H    -0.04363 -37.26556  26.57913
H    -1.58180 -36.59475  26.05611
H     0.92522 -35.93663  22.19820
H     3.05796 -34.39164  19.00646
H     4.18239 -32.60222  20.07962
