60
Generated by autodE on: 2022-07-09. E = -82.298029 Ha
C     3.48630 -37.72084  15.90901
C     3.73426 -38.14619  17.35442
O     3.26044 -37.13147  18.23829
C     2.91768 -39.41040  17.65204
C     5.24783 -38.28819  17.75430
C     5.76934 -39.72255  17.79886
C     6.17874 -37.44226  16.87637
O     5.29041 -37.72587  19.06586
B     4.15365 -36.99382  19.26873
C     3.88771 -36.12795  20.52971
C     4.91802 -35.95648  21.47259
C     4.93755 -35.13545  22.56272
H     5.87130 -35.04014  23.10081
C     3.81017 -34.29745  23.07838
H     4.03871 -33.90087  24.06712
C     2.43793 -34.90276  23.11466
B     1.68819 -34.89786  24.48251
O     2.20920 -34.36744  25.63101
C     1.35366 -34.70467  26.72166
C     1.22625 -33.50688  27.66008
C     2.02760 -35.86087  27.47167
C     0.02059 -35.13402  26.00758
C    -0.99355 -33.98825  25.89948
C    -0.66824 -36.35629  26.61048
O     0.44830 -35.43712  24.67987
C     1.88416 -35.46569  22.04088
C     2.48671 -35.57482  20.69355
H     1.80470 -36.06785  20.00368
C     3.14294 -34.39985  20.04842
C     3.82189 -33.36510  20.69004
C     4.16400 -33.31164  22.01402
H     4.79718 -32.49419  22.33264
H     2.41410 -37.66232  15.73864
H     3.91169 -38.45053  15.22535
H     3.91262 -36.74360  15.70700
H     1.86382 -39.18137  17.51048
H     3.05914 -39.71404  18.68631
H     3.19497 -40.22326  16.98777
H     5.65628 -40.19409  16.82641
H     5.24616 -40.30642  18.54910
H     6.82412 -39.70561  18.06151
H     6.23043 -37.83584  15.86564
H     7.17409 -37.45803  17.31437
H     5.83923 -36.40970  16.85355
H     5.84741 -36.44614  21.20751
H     2.19595 -33.30706  28.10936
H     0.51102 -33.72252  28.44924
H     0.91557 -32.61739  27.12175
H     3.01526 -35.53567  27.79078
H     2.15346 -36.71428  26.81008
H     1.45193 -36.15236  28.34496
H    -1.39631 -33.72665  26.87341
H    -1.80771 -34.30819  25.25334
H    -0.52861 -33.11666  25.44568
H    -0.92139 -36.17098  27.65087
H    -0.03657 -37.23589  26.54122
H    -1.58195 -36.55407  26.05559
H     0.89827 -35.89816  22.14632
H     3.03639 -34.34647  18.97539
H     4.23073 -32.59440  20.04667
