60
Generated by autodE on: 2022-07-09. E = -82.295751 Ha
C     3.39918 -37.84856  15.96554
C     3.68468 -38.14967  17.43471
O     3.24111 -37.05657  18.24000
C     2.86887 -39.37541  17.86418
C     5.20798 -38.26781  17.80603
C     5.72019 -39.69485  17.98440
C     6.12197 -37.52248  16.82606
O     5.29031 -37.57925  19.05568
B     4.16301 -36.83267  19.22366
C     3.92937 -35.83944  20.41794
C     4.94963 -35.79330  21.41313
C     4.99579 -34.86631  22.44404
H     5.93009 -34.81095  22.99262
C     3.83395 -34.18812  23.09551
H     4.06819 -33.79939  24.08173
C     2.47425 -34.80134  23.09519
B     1.71695 -34.85471  24.45486
O     2.21454 -34.38284  25.63986
C     1.34414 -34.78957  26.69508
C     1.18782 -33.65096  27.70032
C     2.01453 -35.98274  27.38850
C     0.02650 -35.18771  25.93607
C    -0.99543 -34.04540  25.87326
C    -0.66221 -36.44779  26.45551
O     0.47804 -35.41434  24.60251
C     1.91451 -35.34219  22.01043
C     2.48232 -35.44762  20.66196
H     1.80823 -35.92734  19.96134
C     3.32826 -34.39457  20.02562
C     3.91765 -33.28292  20.67633
C     4.35623 -33.32969  21.99405
H     4.97093 -32.49683  22.31852
H     2.32294 -37.80212  15.81853
H     3.80636 -38.63517  15.33632
H     3.82016 -36.89310  15.66978
H     1.81305 -39.15319  17.72709
H     3.03339 -39.58567  18.91800
H     3.12657 -40.24663  17.26969
H     5.58795 -40.26129  17.06671
H     5.20650 -40.19570  18.79844
H     6.77921 -39.65908  18.22709
H     6.14106 -38.01300  15.85763
H     7.12893 -37.50847  17.23649
H     5.79269 -36.49278  16.71142
H     5.87691 -36.27695  21.13790
H     2.14606 -33.46969  28.18089
H     0.45915 -33.92058  28.46015
H     0.87822 -32.73365  27.21027
H     2.99281 -35.66988  27.74637
H     2.16053 -36.79432  26.68004
H     1.42428 -36.33011  28.23113
H    -1.42111 -33.84351  26.85160
H    -1.79257 -34.33476  25.19234
H    -0.52951 -33.14543  25.47994
H    -0.93644 -36.32595  27.49981
H    -0.02107 -37.31645  26.34647
H    -1.56330 -36.61990  25.87212
H     0.92858 -35.77346  22.12149
H     3.16212 -34.27328  18.96080
H     4.35860 -32.52963  20.03662
