60
Coordinates from ORCA-job get_bvl_bvl_rxn1_TS_MEP E -1206.034019843345
  C       0.779162     -1.600789     -6.065568
  C       0.898983     -1.949095     -4.585704
  O       0.524217     -0.783908     -3.796938
  C      -0.081370     -3.069074     -4.217652
  C       2.374091     -2.230947     -4.085044
  C       2.763118     -3.704767     -4.030539
  C       3.430260     -1.425798     -4.850886
  O       2.345902     -1.704542     -2.727128
  B       1.321457     -0.784444     -2.668148
  C       1.074090      0.161253     -1.454788
  C       2.057386      0.096337     -0.350569
  C       2.040073      0.809417      0.800075
  H       2.849030      0.644129      1.530960
  C       0.969799      1.823673      1.158241
  H       1.213797      2.253134      2.147020
  C      -0.391138      1.138539      1.273201
  B      -1.123419      1.131115      2.640276
  O      -0.638343      1.793400      3.753863
  C      -1.454708      1.390387      4.887004
  C      -1.614557      2.582723      5.825453
  C      -0.706114      0.252309      5.592108
  C      -2.789873      0.908750      4.185456
  C      -3.783576      2.051683      3.941638
  C      -3.488657     -0.261336      4.871710
  O      -2.315952      0.473170      2.883314
  C      -0.971091      0.511875      0.206896
  C      -0.450972      0.398364     -1.159937
  H      -1.104521     -0.148254     -1.856673
  C       0.365535      1.494368     -1.832344
  C       0.681698      2.774242     -1.172771
  C       0.941987      2.951074      0.143630
  H       1.158233      3.969899      0.505508
  H      -0.282410     -1.414192     -6.320893
  H       1.141789     -2.437017     -6.696346
  H       1.354264     -0.691221     -6.317974
  H      -1.114887     -2.711858     -4.392693
  H       0.008911     -3.344663     -3.148582
  H       0.082522     -3.976564     -4.830872
  H       2.714314     -4.163056     -5.038834
  H       2.104370     -4.274367     -3.350058
  H       3.802136     -3.803229     -3.659574
  H       3.579546     -1.814524     -5.877117
  H       4.393254     -1.493129     -4.308437
  H       3.149548     -0.356263     -4.915369
  H       2.879038     -0.621109     -0.510127
  H      -0.630210      2.852671      6.255974
  H      -2.299584      2.339102      6.662394
  H      -2.006262      3.468939      5.293574
  H       0.309871      0.603794      5.857816
  H      -0.600029     -0.627063      4.927133
  H      -1.220568     -0.065076      6.520105
  H      -4.261117      2.390867      4.881735
  H      -4.576304      1.693011      3.256611
  H      -3.288199      2.919628      3.463794
  H      -3.793636      0.010930      5.902189
  H      -2.838218     -1.153734      4.917703
  H      -4.400472     -0.534448      4.305035
  H      -1.946905      0.025793      0.378676
  H       0.164528      1.574992     -2.911605
  H       0.700186      3.654893     -1.835920
